
---------- Begin Simulation Statistics ----------
sim_seconds                                  0.092675                       # Number of seconds simulated
sim_ticks                                 92674712000                       # Number of ticks simulated
final_tick                                92674712000                       # Number of ticks from beginning of simulation (restored from checkpoints and never reset)
sim_freq                                 1000000000000                       # Frequency of simulated ticks
host_inst_rate                                1189132                       # Simulator instruction rate (inst/s)
host_op_rate                                  1961863                       # Simulator op (including micro ops) rate (op/s)
host_tick_rate                             2461678454                       # Simulator tick rate (ticks/s)
host_mem_usage                                 668416                       # Number of bytes of host memory used
host_seconds                                    37.65                       # Real time elapsed on the host
sim_insts                                    44767210                       # Number of instructions simulated
sim_ops                                      73858152                       # Number of ops (including micro ops) simulated
system.voltage_domain.voltage                       1                       # Voltage in Volts
system.clk_domain.clock                          1000                       # Clock period in ticks
system.mem_ctrls.pwrStateResidencyTicks::UNDEFINED  92674712000                       # Cumulative time (in ticks) in various power states
system.mem_ctrls.bytes_read::cpu.inst           47168                       # Number of bytes read from this memory
system.mem_ctrls.bytes_read::cpu.data         1320384                       # Number of bytes read from this memory
system.mem_ctrls.bytes_read::total            1367552                       # Number of bytes read from this memory
system.mem_ctrls.bytes_inst_read::cpu.inst        47168                       # Number of instructions bytes read from this memory
system.mem_ctrls.bytes_inst_read::total         47168                       # Number of instructions bytes read from this memory
system.mem_ctrls.bytes_written::writebacks      1053504                       # Number of bytes written to this memory
system.mem_ctrls.bytes_written::total         1053504                       # Number of bytes written to this memory
system.mem_ctrls.num_reads::cpu.inst              737                       # Number of read requests responded to by this memory
system.mem_ctrls.num_reads::cpu.data            20631                       # Number of read requests responded to by this memory
system.mem_ctrls.num_reads::total               21368                       # Number of read requests responded to by this memory
system.mem_ctrls.num_writes::writebacks         16461                       # Number of write requests responded to by this memory
system.mem_ctrls.num_writes::total              16461                       # Number of write requests responded to by this memory
system.mem_ctrls.bw_read::cpu.inst             508963                       # Total read bandwidth from this memory (bytes/s)
system.mem_ctrls.bw_read::cpu.data           14247511                       # Total read bandwidth from this memory (bytes/s)
system.mem_ctrls.bw_read::total              14756474                       # Total read bandwidth from this memory (bytes/s)
system.mem_ctrls.bw_inst_read::cpu.inst        508963                       # Instruction read bandwidth from this memory (bytes/s)
system.mem_ctrls.bw_inst_read::total           508963                       # Instruction read bandwidth from this memory (bytes/s)
system.mem_ctrls.bw_write::writebacks        11367761                       # Write bandwidth from this memory (bytes/s)
system.mem_ctrls.bw_write::total             11367761                       # Write bandwidth from this memory (bytes/s)
system.mem_ctrls.bw_total::writebacks        11367761                       # Total bandwidth to/from this memory (bytes/s)
system.mem_ctrls.bw_total::cpu.inst            508963                       # Total bandwidth to/from this memory (bytes/s)
system.mem_ctrls.bw_total::cpu.data          14247511                       # Total bandwidth to/from this memory (bytes/s)
system.mem_ctrls.bw_total::total             26124235                       # Total bandwidth to/from this memory (bytes/s)
system.pwrStateResidencyTicks::UNDEFINED  92674712000                       # Cumulative time (in ticks) in various power states
system.cpu_voltage_domain.voltage                   1                       # Voltage in Volts
system.cpu_clk_domain.clock                       500                       # Clock period in ticks
system.cpu.dtb.walker.pwrStateResidencyTicks::UNDEFINED  92674712000                       # Cumulative time (in ticks) in various power states
system.cpu.dtb.rdAccesses                    20998344                       # TLB accesses on read requests
system.cpu.dtb.wrAccesses                     5824771                       # TLB accesses on write requests
system.cpu.dtb.rdMisses                           229                       # TLB misses on read requests
system.cpu.dtb.wrMisses                           111                       # TLB misses on write requests
system.cpu.apic_clk_domain.clock                 8000                       # Clock period in ticks
system.cpu.interrupts.pwrStateResidencyTicks::UNDEFINED  92674712000                       # Cumulative time (in ticks) in various power states
system.cpu.itb.walker.pwrStateResidencyTicks::UNDEFINED  92674712000                       # Cumulative time (in ticks) in various power states
system.cpu.itb.rdAccesses                           0                       # TLB accesses on read requests
system.cpu.itb.wrAccesses                    59427986                       # TLB accesses on write requests
system.cpu.itb.rdMisses                             0                       # TLB misses on read requests
system.cpu.itb.wrMisses                            78                       # TLB misses on write requests
system.cpu.workload.numSyscalls                    25                       # Number of system calls
system.cpu.pwrStateResidencyTicks::ON     92674712000                       # Cumulative time (in ticks) in various power states
system.cpu.numCycles                        185349424                       # number of cpu cycles simulated
system.cpu.numWorkItemsStarted                      0                       # number of work items this cpu started
system.cpu.numWorkItemsCompleted                    0                       # number of work items this cpu completed
system.cpu.committedInsts                    44767210                       # Number of instructions committed
system.cpu.committedOps                      73858152                       # Number of ops (including micro ops) committed
system.cpu.num_int_alu_accesses              73334161                       # Number of integer alu accesses
system.cpu.num_fp_alu_accesses                   4314                       # Number of float alu accesses
system.cpu.num_vec_alu_accesses                     0                       # Number of vector alu accesses
system.cpu.num_func_calls                      945802                       # number of times a function call or return occured
system.cpu.num_conditional_control_insts      4246009                       # number of instructions that are conditional controls
system.cpu.num_int_insts                     73334161                       # number of integer instructions
system.cpu.num_fp_insts                          4314                       # number of float instructions
system.cpu.num_vec_insts                            0                       # number of vector instructions
system.cpu.num_int_register_reads           164562860                       # number of times the integer registers were read
system.cpu.num_int_register_writes           64003513                       # number of times the integer registers were written
system.cpu.num_fp_register_reads                 6414                       # number of times the floating registers were read
system.cpu.num_fp_register_writes                3205                       # number of times the floating registers were written
system.cpu.num_vec_register_reads                   0                       # number of times the vector registers were read
system.cpu.num_vec_register_writes                  0                       # number of times the vector registers were written
system.cpu.num_cc_register_reads             27728786                       # number of times the CC registers were read
system.cpu.num_cc_register_writes            24993257                       # number of times the CC registers were written
system.cpu.num_mem_refs                      26823106                       # number of memory refs
system.cpu.num_load_insts                    20998335                       # Number of load instructions
system.cpu.num_store_insts                    5824771                       # Number of store instructions
system.cpu.num_idle_cycles                          0                       # Number of idle cycles
system.cpu.num_busy_cycles                  185349424                       # Number of busy cycles
system.cpu.not_idle_fraction                        1                       # Percentage of non-idle cycles
system.cpu.idle_fraction                            0                       # Percentage of idle cycles
system.cpu.Branches                           5689858                       # Number of branches fetched
system.cpu.op_class::No_OpClass                177077      0.24%      0.24% # Class of executed instruction
system.cpu.op_class::IntAlu                  45851162     62.08%     62.32% # Class of executed instruction
system.cpu.op_class::IntMult                       15      0.00%     62.32% # Class of executed instruction
system.cpu.op_class::IntDiv                   1004199      1.36%     63.68% # Class of executed instruction
system.cpu.op_class::FloatAdd                     132      0.00%     63.68% # Class of executed instruction
system.cpu.op_class::FloatCmp                       0      0.00%     63.68% # Class of executed instruction
system.cpu.op_class::FloatCvt                       0      0.00%     63.68% # Class of executed instruction
system.cpu.op_class::FloatMult                      0      0.00%     63.68% # Class of executed instruction
system.cpu.op_class::FloatMultAcc                   0      0.00%     63.68% # Class of executed instruction
system.cpu.op_class::FloatDiv                       0      0.00%     63.68% # Class of executed instruction
system.cpu.op_class::FloatMisc                      0      0.00%     63.68% # Class of executed instruction
system.cpu.op_class::FloatSqrt                      0      0.00%     63.68% # Class of executed instruction
system.cpu.op_class::SimdAdd                      348      0.00%     63.68% # Class of executed instruction
system.cpu.op_class::SimdAddAcc                     0      0.00%     63.68% # Class of executed instruction
system.cpu.op_class::SimdAlu                      684      0.00%     63.68% # Class of executed instruction
system.cpu.op_class::SimdCmp                        0      0.00%     63.68% # Class of executed instruction
system.cpu.op_class::SimdCvt                      770      0.00%     63.68% # Class of executed instruction
system.cpu.op_class::SimdMisc                     524      0.00%     63.68% # Class of executed instruction
system.cpu.op_class::SimdMult                       0      0.00%     63.68% # Class of executed instruction
system.cpu.op_class::SimdMultAcc                    0      0.00%     63.68% # Class of executed instruction
system.cpu.op_class::SimdShift                    135      0.00%     63.68% # Class of executed instruction
system.cpu.op_class::SimdShiftAcc                   0      0.00%     63.68% # Class of executed instruction
system.cpu.op_class::SimdSqrt                       0      0.00%     63.68% # Class of executed instruction
system.cpu.op_class::SimdFloatAdd                   0      0.00%     63.68% # Class of executed instruction
system.cpu.op_class::SimdFloatAlu                   0      0.00%     63.68% # Class of executed instruction
system.cpu.op_class::SimdFloatCmp                   0      0.00%     63.68% # Class of executed instruction
system.cpu.op_class::SimdFloatCvt                   0      0.00%     63.68% # Class of executed instruction
system.cpu.op_class::SimdFloatDiv                   0      0.00%     63.68% # Class of executed instruction
system.cpu.op_class::SimdFloatMisc                  0      0.00%     63.68% # Class of executed instruction
system.cpu.op_class::SimdFloatMult                  0      0.00%     63.68% # Class of executed instruction
system.cpu.op_class::SimdFloatMultAcc               0      0.00%     63.68% # Class of executed instruction
system.cpu.op_class::SimdFloatSqrt                  0      0.00%     63.68% # Class of executed instruction
system.cpu.op_class::MemRead                 20997363     28.43%     92.11% # Class of executed instruction
system.cpu.op_class::MemWrite                 5824081      7.89%    100.00% # Class of executed instruction
system.cpu.op_class::FloatMemRead                 972      0.00%    100.00% # Class of executed instruction
system.cpu.op_class::FloatMemWrite                690      0.00%    100.00% # Class of executed instruction
system.cpu.op_class::IprAccess                      0      0.00%    100.00% # Class of executed instruction
system.cpu.op_class::InstPrefetch                   0      0.00%    100.00% # Class of executed instruction
system.cpu.op_class::total                   73858152                       # Class of executed instruction
system.cpu.dcache.tags.pwrStateResidencyTicks::UNDEFINED  92674712000                       # Cumulative time (in ticks) in various power states
system.cpu.dcache.tags.tagsinuse           511.432504                       # Cycle average of tags in use
system.cpu.dcache.tags.total_refs            26823115                       # Total number of references to valid blocks.
system.cpu.dcache.tags.sampled_refs             47039                       # Sample count of references to valid blocks.
system.cpu.dcache.tags.avg_refs            570.231404                       # Average number of references to valid blocks.
system.cpu.dcache.tags.warmup_cycle            759000                       # Cycle when the warmup percentage was hit.
system.cpu.dcache.tags.occ_blocks::cpu.data   511.432504                       # Average occupied blocks per requestor
system.cpu.dcache.tags.occ_percent::cpu.data     0.998892                       # Average percentage of cache occupancy
system.cpu.dcache.tags.occ_percent::total     0.998892                       # Average percentage of cache occupancy
system.cpu.dcache.tags.occ_task_id_blocks::1024          512                       # Occupied blocks per task id
system.cpu.dcache.tags.age_task_id_blocks_1024::0           14                       # Occupied blocks per task id
system.cpu.dcache.tags.age_task_id_blocks_1024::1           42                       # Occupied blocks per task id
system.cpu.dcache.tags.age_task_id_blocks_1024::2           42                       # Occupied blocks per task id
system.cpu.dcache.tags.age_task_id_blocks_1024::3          414                       # Occupied blocks per task id
system.cpu.dcache.tags.occ_task_id_percent::1024            1                       # Percentage of cache occupancy per task id
system.cpu.dcache.tags.tag_accesses          53693269                       # Number of tag accesses
system.cpu.dcache.tags.data_accesses         53693269                       # Number of data accesses
system.cpu.dcache.pwrStateResidencyTicks::UNDEFINED  92674712000                       # Cumulative time (in ticks) in various power states
system.cpu.dcache.ReadReq_hits::cpu.data     20958406                       # number of ReadReq hits
system.cpu.dcache.ReadReq_hits::total        20958406                       # number of ReadReq hits
system.cpu.dcache.WriteReq_hits::cpu.data      5813961                       # number of WriteReq hits
system.cpu.dcache.WriteReq_hits::total        5813961                       # number of WriteReq hits
system.cpu.dcache.demand_hits::cpu.data      26772367                       # number of demand (read+write) hits
system.cpu.dcache.demand_hits::total         26772367                       # number of demand (read+write) hits
system.cpu.dcache.overall_hits::cpu.data     26772367                       # number of overall hits
system.cpu.dcache.overall_hits::total        26772367                       # number of overall hits
system.cpu.dcache.ReadReq_misses::cpu.data        39938                       # number of ReadReq misses
system.cpu.dcache.ReadReq_misses::total         39938                       # number of ReadReq misses
system.cpu.dcache.WriteReq_misses::cpu.data        10810                       # number of WriteReq misses
system.cpu.dcache.WriteReq_misses::total        10810                       # number of WriteReq misses
system.cpu.dcache.demand_misses::cpu.data        50748                       # number of demand (read+write) misses
system.cpu.dcache.demand_misses::total          50748                       # number of demand (read+write) misses
system.cpu.dcache.overall_misses::cpu.data        50748                       # number of overall misses
system.cpu.dcache.overall_misses::total         50748                       # number of overall misses
system.cpu.dcache.ReadReq_miss_latency::cpu.data   4894608000                       # number of ReadReq miss cycles
system.cpu.dcache.ReadReq_miss_latency::total   4894608000                       # number of ReadReq miss cycles
system.cpu.dcache.WriteReq_miss_latency::cpu.data   1455505500                       # number of WriteReq miss cycles
system.cpu.dcache.WriteReq_miss_latency::total   1455505500                       # number of WriteReq miss cycles
system.cpu.dcache.demand_miss_latency::cpu.data   6350113500                       # number of demand (read+write) miss cycles
system.cpu.dcache.demand_miss_latency::total   6350113500                       # number of demand (read+write) miss cycles
system.cpu.dcache.overall_miss_latency::cpu.data   6350113500                       # number of overall miss cycles
system.cpu.dcache.overall_miss_latency::total   6350113500                       # number of overall miss cycles
system.cpu.dcache.ReadReq_accesses::cpu.data     20998344                       # number of ReadReq accesses(hits+misses)
system.cpu.dcache.ReadReq_accesses::total     20998344                       # number of ReadReq accesses(hits+misses)
system.cpu.dcache.WriteReq_accesses::cpu.data      5824771                       # number of WriteReq accesses(hits+misses)
system.cpu.dcache.WriteReq_accesses::total      5824771                       # number of WriteReq accesses(hits+misses)
system.cpu.dcache.demand_accesses::cpu.data     26823115                       # number of demand (read+write) accesses
system.cpu.dcache.demand_accesses::total     26823115                       # number of demand (read+write) accesses
system.cpu.dcache.overall_accesses::cpu.data     26823115                       # number of overall (read+write) accesses
system.cpu.dcache.overall_accesses::total     26823115                       # number of overall (read+write) accesses
system.cpu.dcache.ReadReq_miss_rate::cpu.data     0.001902                       # miss rate for ReadReq accesses
system.cpu.dcache.ReadReq_miss_rate::total     0.001902                       # miss rate for ReadReq accesses
system.cpu.dcache.WriteReq_miss_rate::cpu.data     0.001856                       # miss rate for WriteReq accesses
system.cpu.dcache.WriteReq_miss_rate::total     0.001856                       # miss rate for WriteReq accesses
system.cpu.dcache.demand_miss_rate::cpu.data     0.001892                       # miss rate for demand accesses
system.cpu.dcache.demand_miss_rate::total     0.001892                       # miss rate for demand accesses
system.cpu.dcache.overall_miss_rate::cpu.data     0.001892                       # miss rate for overall accesses
system.cpu.dcache.overall_miss_rate::total     0.001892                       # miss rate for overall accesses
system.cpu.dcache.ReadReq_avg_miss_latency::cpu.data 122555.160499                       # average ReadReq miss latency
system.cpu.dcache.ReadReq_avg_miss_latency::total 122555.160499                       # average ReadReq miss latency
system.cpu.dcache.WriteReq_avg_miss_latency::cpu.data 134644.357077                       # average WriteReq miss latency
system.cpu.dcache.WriteReq_avg_miss_latency::total 134644.357077                       # average WriteReq miss latency
system.cpu.dcache.demand_avg_miss_latency::cpu.data 125130.320407                       # average overall miss latency
system.cpu.dcache.demand_avg_miss_latency::total 125130.320407                       # average overall miss latency
system.cpu.dcache.overall_avg_miss_latency::cpu.data 125130.320407                       # average overall miss latency
system.cpu.dcache.overall_avg_miss_latency::total 125130.320407                       # average overall miss latency
system.cpu.dcache.blocked_cycles::no_mshrs            0                       # number of cycles access was blocked
system.cpu.dcache.blocked_cycles::no_targets            0                       # number of cycles access was blocked
system.cpu.dcache.blocked::no_mshrs                 0                       # number of cycles access was blocked
system.cpu.dcache.blocked::no_targets               0                       # number of cycles access was blocked
system.cpu.dcache.avg_blocked_cycles::no_mshrs          nan                       # average number of cycles each access was blocked
system.cpu.dcache.avg_blocked_cycles::no_targets          nan                       # average number of cycles each access was blocked
system.cpu.dcache.writebacks::writebacks        43972                       # number of writebacks
system.cpu.dcache.writebacks::total             43972                       # number of writebacks
system.cpu.dcache.ReadReq_mshr_misses::cpu.data        39938                       # number of ReadReq MSHR misses
system.cpu.dcache.ReadReq_mshr_misses::total        39938                       # number of ReadReq MSHR misses
system.cpu.dcache.WriteReq_mshr_misses::cpu.data        10810                       # number of WriteReq MSHR misses
system.cpu.dcache.WriteReq_mshr_misses::total        10810                       # number of WriteReq MSHR misses
system.cpu.dcache.demand_mshr_misses::cpu.data        50748                       # number of demand (read+write) MSHR misses
system.cpu.dcache.demand_mshr_misses::total        50748                       # number of demand (read+write) MSHR misses
system.cpu.dcache.overall_mshr_misses::cpu.data        50748                       # number of overall MSHR misses
system.cpu.dcache.overall_mshr_misses::total        50748                       # number of overall MSHR misses
system.cpu.dcache.ReadReq_mshr_miss_latency::cpu.data   4854670000                       # number of ReadReq MSHR miss cycles
system.cpu.dcache.ReadReq_mshr_miss_latency::total   4854670000                       # number of ReadReq MSHR miss cycles
system.cpu.dcache.WriteReq_mshr_miss_latency::cpu.data   1444695500                       # number of WriteReq MSHR miss cycles
system.cpu.dcache.WriteReq_mshr_miss_latency::total   1444695500                       # number of WriteReq MSHR miss cycles
system.cpu.dcache.demand_mshr_miss_latency::cpu.data   6299365500                       # number of demand (read+write) MSHR miss cycles
system.cpu.dcache.demand_mshr_miss_latency::total   6299365500                       # number of demand (read+write) MSHR miss cycles
system.cpu.dcache.overall_mshr_miss_latency::cpu.data   6299365500                       # number of overall MSHR miss cycles
system.cpu.dcache.overall_mshr_miss_latency::total   6299365500                       # number of overall MSHR miss cycles
system.cpu.dcache.ReadReq_mshr_miss_rate::cpu.data     0.001902                       # mshr miss rate for ReadReq accesses
system.cpu.dcache.ReadReq_mshr_miss_rate::total     0.001902                       # mshr miss rate for ReadReq accesses
system.cpu.dcache.WriteReq_mshr_miss_rate::cpu.data     0.001856                       # mshr miss rate for WriteReq accesses
system.cpu.dcache.WriteReq_mshr_miss_rate::total     0.001856                       # mshr miss rate for WriteReq accesses
system.cpu.dcache.demand_mshr_miss_rate::cpu.data     0.001892                       # mshr miss rate for demand accesses
system.cpu.dcache.demand_mshr_miss_rate::total     0.001892                       # mshr miss rate for demand accesses
system.cpu.dcache.overall_mshr_miss_rate::cpu.data     0.001892                       # mshr miss rate for overall accesses
system.cpu.dcache.overall_mshr_miss_rate::total     0.001892                       # mshr miss rate for overall accesses
system.cpu.dcache.ReadReq_avg_mshr_miss_latency::cpu.data 121555.160499                       # average ReadReq mshr miss latency
system.cpu.dcache.ReadReq_avg_mshr_miss_latency::total 121555.160499                       # average ReadReq mshr miss latency
system.cpu.dcache.WriteReq_avg_mshr_miss_latency::cpu.data 133644.357077                       # average WriteReq mshr miss latency
system.cpu.dcache.WriteReq_avg_mshr_miss_latency::total 133644.357077                       # average WriteReq mshr miss latency
system.cpu.dcache.demand_avg_mshr_miss_latency::cpu.data 124130.320407                       # average overall mshr miss latency
system.cpu.dcache.demand_avg_mshr_miss_latency::total 124130.320407                       # average overall mshr miss latency
system.cpu.dcache.overall_avg_mshr_miss_latency::cpu.data 124130.320407                       # average overall mshr miss latency
system.cpu.dcache.overall_avg_mshr_miss_latency::total 124130.320407                       # average overall mshr miss latency
system.cpu.dcache.replacements                  46527                       # number of replacements
system.cpu.dtb_walker_cache.tags.pwrStateResidencyTicks::UNDEFINED  92674712000                       # Cumulative time (in ticks) in various power states
system.cpu.dtb_walker_cache.tags.tagsinuse            0                       # Cycle average of tags in use
system.cpu.dtb_walker_cache.tags.total_refs            0                       # Total number of references to valid blocks.
system.cpu.dtb_walker_cache.tags.sampled_refs            0                       # Sample count of references to valid blocks.
system.cpu.dtb_walker_cache.tags.avg_refs          nan                       # Average number of references to valid blocks.
system.cpu.dtb_walker_cache.tags.warmup_cycle            0                       # Cycle when the warmup percentage was hit.
system.cpu.dtb_walker_cache.tags.tag_accesses            0                       # Number of tag accesses
system.cpu.dtb_walker_cache.tags.data_accesses            0                       # Number of data accesses
system.cpu.dtb_walker_cache.pwrStateResidencyTicks::UNDEFINED  92674712000                       # Cumulative time (in ticks) in various power states
system.cpu.dtb_walker_cache.blocked_cycles::no_mshrs            0                       # number of cycles access was blocked
system.cpu.dtb_walker_cache.blocked_cycles::no_targets            0                       # number of cycles access was blocked
system.cpu.dtb_walker_cache.blocked::no_mshrs            0                       # number of cycles access was blocked
system.cpu.dtb_walker_cache.blocked::no_targets            0                       # number of cycles access was blocked
system.cpu.dtb_walker_cache.avg_blocked_cycles::no_mshrs          nan                       # average number of cycles each access was blocked
system.cpu.dtb_walker_cache.avg_blocked_cycles::no_targets          nan                       # average number of cycles each access was blocked
system.cpu.dtb_walker_cache.replacements            0                       # number of replacements
system.cpu.icache.tags.pwrStateResidencyTicks::UNDEFINED  92674712000                       # Cumulative time (in ticks) in various power states
system.cpu.icache.tags.tagsinuse           452.000025                       # Cycle average of tags in use
system.cpu.icache.tags.total_refs            59427986                       # Total number of references to valid blocks.
system.cpu.icache.tags.sampled_refs               757                       # Sample count of references to valid blocks.
system.cpu.icache.tags.avg_refs          78504.605020                       # Average number of references to valid blocks.
system.cpu.icache.tags.warmup_cycle            439000                       # Cycle when the warmup percentage was hit.
system.cpu.icache.tags.occ_blocks::cpu.inst   452.000025                       # Average occupied blocks per requestor
system.cpu.icache.tags.occ_percent::cpu.inst     0.882813                       # Average percentage of cache occupancy
system.cpu.icache.tags.occ_percent::total     0.882813                       # Average percentage of cache occupancy
system.cpu.icache.tags.occ_task_id_blocks::1024          467                       # Occupied blocks per task id
system.cpu.icache.tags.age_task_id_blocks_1024::0           25                       # Occupied blocks per task id
system.cpu.icache.tags.age_task_id_blocks_1024::1           36                       # Occupied blocks per task id
system.cpu.icache.tags.age_task_id_blocks_1024::4          406                       # Occupied blocks per task id
system.cpu.icache.tags.occ_task_id_percent::1024     0.912109                       # Percentage of cache occupancy per task id
system.cpu.icache.tags.tag_accesses         118856729                       # Number of tag accesses
system.cpu.icache.tags.data_accesses        118856729                       # Number of data accesses
system.cpu.icache.pwrStateResidencyTicks::UNDEFINED  92674712000                       # Cumulative time (in ticks) in various power states
system.cpu.icache.ReadReq_hits::cpu.inst     59427229                       # number of ReadReq hits
system.cpu.icache.ReadReq_hits::total        59427229                       # number of ReadReq hits
system.cpu.icache.demand_hits::cpu.inst      59427229                       # number of demand (read+write) hits
system.cpu.icache.demand_hits::total         59427229                       # number of demand (read+write) hits
system.cpu.icache.overall_hits::cpu.inst     59427229                       # number of overall hits
system.cpu.icache.overall_hits::total        59427229                       # number of overall hits
system.cpu.icache.ReadReq_misses::cpu.inst          757                       # number of ReadReq misses
system.cpu.icache.ReadReq_misses::total           757                       # number of ReadReq misses
system.cpu.icache.demand_misses::cpu.inst          757                       # number of demand (read+write) misses
system.cpu.icache.demand_misses::total            757                       # number of demand (read+write) misses
system.cpu.icache.overall_misses::cpu.inst          757                       # number of overall misses
system.cpu.icache.overall_misses::total           757                       # number of overall misses
system.cpu.icache.ReadReq_miss_latency::cpu.inst    125322500                       # number of ReadReq miss cycles
system.cpu.icache.ReadReq_miss_latency::total    125322500                       # number of ReadReq miss cycles
system.cpu.icache.demand_miss_latency::cpu.inst    125322500                       # number of demand (read+write) miss cycles
system.cpu.icache.demand_miss_latency::total    125322500                       # number of demand (read+write) miss cycles
system.cpu.icache.overall_miss_latency::cpu.inst    125322500                       # number of overall miss cycles
system.cpu.icache.overall_miss_latency::total    125322500                       # number of overall miss cycles
system.cpu.icache.ReadReq_accesses::cpu.inst     59427986                       # number of ReadReq accesses(hits+misses)
system.cpu.icache.ReadReq_accesses::total     59427986                       # number of ReadReq accesses(hits+misses)
system.cpu.icache.demand_accesses::cpu.inst     59427986                       # number of demand (read+write) accesses
system.cpu.icache.demand_accesses::total     59427986                       # number of demand (read+write) accesses
system.cpu.icache.overall_accesses::cpu.inst     59427986                       # number of overall (read+write) accesses
system.cpu.icache.overall_accesses::total     59427986                       # number of overall (read+write) accesses
system.cpu.icache.ReadReq_miss_rate::cpu.inst     0.000013                       # miss rate for ReadReq accesses
system.cpu.icache.ReadReq_miss_rate::total     0.000013                       # miss rate for ReadReq accesses
system.cpu.icache.demand_miss_rate::cpu.inst     0.000013                       # miss rate for demand accesses
system.cpu.icache.demand_miss_rate::total     0.000013                       # miss rate for demand accesses
system.cpu.icache.overall_miss_rate::cpu.inst     0.000013                       # miss rate for overall accesses
system.cpu.icache.overall_miss_rate::total     0.000013                       # miss rate for overall accesses
system.cpu.icache.ReadReq_avg_miss_latency::cpu.inst 165551.519155                       # average ReadReq miss latency
system.cpu.icache.ReadReq_avg_miss_latency::total 165551.519155                       # average ReadReq miss latency
system.cpu.icache.demand_avg_miss_latency::cpu.inst 165551.519155                       # average overall miss latency
system.cpu.icache.demand_avg_miss_latency::total 165551.519155                       # average overall miss latency
system.cpu.icache.overall_avg_miss_latency::cpu.inst 165551.519155                       # average overall miss latency
system.cpu.icache.overall_avg_miss_latency::total 165551.519155                       # average overall miss latency
system.cpu.icache.blocked_cycles::no_mshrs            0                       # number of cycles access was blocked
system.cpu.icache.blocked_cycles::no_targets            0                       # number of cycles access was blocked
system.cpu.icache.blocked::no_mshrs                 0                       # number of cycles access was blocked
system.cpu.icache.blocked::no_targets               0                       # number of cycles access was blocked
system.cpu.icache.avg_blocked_cycles::no_mshrs          nan                       # average number of cycles each access was blocked
system.cpu.icache.avg_blocked_cycles::no_targets          nan                       # average number of cycles each access was blocked
system.cpu.icache.writebacks::writebacks          290                       # number of writebacks
system.cpu.icache.writebacks::total               290                       # number of writebacks
system.cpu.icache.ReadReq_mshr_misses::cpu.inst          757                       # number of ReadReq MSHR misses
system.cpu.icache.ReadReq_mshr_misses::total          757                       # number of ReadReq MSHR misses
system.cpu.icache.demand_mshr_misses::cpu.inst          757                       # number of demand (read+write) MSHR misses
system.cpu.icache.demand_mshr_misses::total          757                       # number of demand (read+write) MSHR misses
system.cpu.icache.overall_mshr_misses::cpu.inst          757                       # number of overall MSHR misses
system.cpu.icache.overall_mshr_misses::total          757                       # number of overall MSHR misses
system.cpu.icache.ReadReq_mshr_miss_latency::cpu.inst    124565500                       # number of ReadReq MSHR miss cycles
system.cpu.icache.ReadReq_mshr_miss_latency::total    124565500                       # number of ReadReq MSHR miss cycles
system.cpu.icache.demand_mshr_miss_latency::cpu.inst    124565500                       # number of demand (read+write) MSHR miss cycles
system.cpu.icache.demand_mshr_miss_latency::total    124565500                       # number of demand (read+write) MSHR miss cycles
system.cpu.icache.overall_mshr_miss_latency::cpu.inst    124565500                       # number of overall MSHR miss cycles
system.cpu.icache.overall_mshr_miss_latency::total    124565500                       # number of overall MSHR miss cycles
system.cpu.icache.ReadReq_mshr_miss_rate::cpu.inst     0.000013                       # mshr miss rate for ReadReq accesses
system.cpu.icache.ReadReq_mshr_miss_rate::total     0.000013                       # mshr miss rate for ReadReq accesses
system.cpu.icache.demand_mshr_miss_rate::cpu.inst     0.000013                       # mshr miss rate for demand accesses
system.cpu.icache.demand_mshr_miss_rate::total     0.000013                       # mshr miss rate for demand accesses
system.cpu.icache.overall_mshr_miss_rate::cpu.inst     0.000013                       # mshr miss rate for overall accesses
system.cpu.icache.overall_mshr_miss_rate::total     0.000013                       # mshr miss rate for overall accesses
system.cpu.icache.ReadReq_avg_mshr_miss_latency::cpu.inst 164551.519155                       # average ReadReq mshr miss latency
system.cpu.icache.ReadReq_avg_mshr_miss_latency::total 164551.519155                       # average ReadReq mshr miss latency
system.cpu.icache.demand_avg_mshr_miss_latency::cpu.inst 164551.519155                       # average overall mshr miss latency
system.cpu.icache.demand_avg_mshr_miss_latency::total 164551.519155                       # average overall mshr miss latency
system.cpu.icache.overall_avg_mshr_miss_latency::cpu.inst 164551.519155                       # average overall mshr miss latency
system.cpu.icache.overall_avg_mshr_miss_latency::total 164551.519155                       # average overall mshr miss latency
system.cpu.icache.replacements                    290                       # number of replacements
system.cpu.itb_walker_cache.tags.pwrStateResidencyTicks::UNDEFINED  92674712000                       # Cumulative time (in ticks) in various power states
system.cpu.itb_walker_cache.tags.tagsinuse            0                       # Cycle average of tags in use
system.cpu.itb_walker_cache.tags.total_refs            0                       # Total number of references to valid blocks.
system.cpu.itb_walker_cache.tags.sampled_refs            0                       # Sample count of references to valid blocks.
system.cpu.itb_walker_cache.tags.avg_refs          nan                       # Average number of references to valid blocks.
system.cpu.itb_walker_cache.tags.warmup_cycle            0                       # Cycle when the warmup percentage was hit.
system.cpu.itb_walker_cache.tags.tag_accesses            0                       # Number of tag accesses
system.cpu.itb_walker_cache.tags.data_accesses            0                       # Number of data accesses
system.cpu.itb_walker_cache.pwrStateResidencyTicks::UNDEFINED  92674712000                       # Cumulative time (in ticks) in various power states
system.cpu.itb_walker_cache.blocked_cycles::no_mshrs            0                       # number of cycles access was blocked
system.cpu.itb_walker_cache.blocked_cycles::no_targets            0                       # number of cycles access was blocked
system.cpu.itb_walker_cache.blocked::no_mshrs            0                       # number of cycles access was blocked
system.cpu.itb_walker_cache.blocked::no_targets            0                       # number of cycles access was blocked
system.cpu.itb_walker_cache.avg_blocked_cycles::no_mshrs          nan                       # average number of cycles each access was blocked
system.cpu.itb_walker_cache.avg_blocked_cycles::no_targets          nan                       # average number of cycles each access was blocked
system.cpu.itb_walker_cache.replacements            0                       # number of replacements
system.l2.tags.pwrStateResidencyTicks::UNDEFINED  92674712000                       # Cumulative time (in ticks) in various power states
system.l2.tags.tagsinuse                  2043.379317                       # Cycle average of tags in use
system.l2.tags.total_refs                       98299                       # Total number of references to valid blocks.
system.l2.tags.sampled_refs                     26105                       # Sample count of references to valid blocks.
system.l2.tags.avg_refs                      3.765524                       # Average number of references to valid blocks.
system.l2.tags.warmup_cycle                    428500                       # Cycle when the warmup percentage was hit.
system.l2.tags.occ_blocks::writebacks        3.813964                       # Average occupied blocks per requestor
system.l2.tags.occ_blocks::cpu.inst          9.540667                       # Average occupied blocks per requestor
system.l2.tags.occ_blocks::cpu.data       2030.024686                       # Average occupied blocks per requestor
system.l2.tags.occ_percent::writebacks       0.001862                       # Average percentage of cache occupancy
system.l2.tags.occ_percent::cpu.inst         0.004659                       # Average percentage of cache occupancy
system.l2.tags.occ_percent::cpu.data         0.991223                       # Average percentage of cache occupancy
system.l2.tags.occ_percent::total            0.997744                       # Average percentage of cache occupancy
system.l2.tags.occ_task_id_blocks::1024          2048                       # Occupied blocks per task id
system.l2.tags.age_task_id_blocks_1024::0           57                       # Occupied blocks per task id
system.l2.tags.age_task_id_blocks_1024::1          106                       # Occupied blocks per task id
system.l2.tags.age_task_id_blocks_1024::2           34                       # Occupied blocks per task id
system.l2.tags.age_task_id_blocks_1024::3           62                       # Occupied blocks per task id
system.l2.tags.age_task_id_blocks_1024::4         1789                       # Occupied blocks per task id
system.l2.tags.occ_task_id_percent::1024            1                       # Percentage of cache occupancy per task id
system.l2.tags.tag_accesses                    812673                       # Number of tag accesses
system.l2.tags.data_accesses                   812673                       # Number of data accesses
system.l2.pwrStateResidencyTicks::UNDEFINED  92674712000                       # Cumulative time (in ticks) in various power states
system.l2.WritebackDirty_hits::writebacks        43972                       # number of WritebackDirty hits
system.l2.WritebackDirty_hits::total            43972                       # number of WritebackDirty hits
system.l2.WritebackClean_hits::writebacks          290                       # number of WritebackClean hits
system.l2.WritebackClean_hits::total              290                       # number of WritebackClean hits
system.l2.UpgradeReq_hits::cpu.data              3709                       # number of UpgradeReq hits
system.l2.UpgradeReq_hits::total                 3709                       # number of UpgradeReq hits
system.l2.ReadExReq_hits::cpu.data                284                       # number of ReadExReq hits
system.l2.ReadExReq_hits::total                   284                       # number of ReadExReq hits
system.l2.ReadCleanReq_hits::cpu.inst              19                       # number of ReadCleanReq hits
system.l2.ReadCleanReq_hits::total                 19                       # number of ReadCleanReq hits
system.l2.ReadSharedReq_hits::cpu.data          21544                       # number of ReadSharedReq hits
system.l2.ReadSharedReq_hits::total             21544                       # number of ReadSharedReq hits
system.l2.demand_hits::cpu.inst                    19                       # number of demand (read+write) hits
system.l2.demand_hits::cpu.data                 21828                       # number of demand (read+write) hits
system.l2.demand_hits::total                    21847                       # number of demand (read+write) hits
system.l2.overall_hits::cpu.inst                   19                       # number of overall hits
system.l2.overall_hits::cpu.data                21828                       # number of overall hits
system.l2.overall_hits::total                   21847                       # number of overall hits
system.l2.ReadExReq_misses::cpu.data             6817                       # number of ReadExReq misses
system.l2.ReadExReq_misses::total                6817                       # number of ReadExReq misses
system.l2.ReadCleanReq_misses::cpu.inst           738                       # number of ReadCleanReq misses
system.l2.ReadCleanReq_misses::total              738                       # number of ReadCleanReq misses
system.l2.ReadSharedReq_misses::cpu.data        18394                       # number of ReadSharedReq misses
system.l2.ReadSharedReq_misses::total           18394                       # number of ReadSharedReq misses
system.l2.demand_misses::cpu.inst                 738                       # number of demand (read+write) misses
system.l2.demand_misses::cpu.data               25211                       # number of demand (read+write) misses
system.l2.demand_misses::total                  25949                       # number of demand (read+write) misses
system.l2.overall_misses::cpu.inst                738                       # number of overall misses
system.l2.overall_misses::cpu.data              25211                       # number of overall misses
system.l2.overall_misses::total                 25949                       # number of overall misses
system.l2.ReadExReq_miss_latency::cpu.data   1386552000                       # number of ReadExReq miss cycles
system.l2.ReadExReq_miss_latency::total    1386552000                       # number of ReadExReq miss cycles
system.l2.ReadCleanReq_miss_latency::cpu.inst    123226500                       # number of ReadCleanReq miss cycles
system.l2.ReadCleanReq_miss_latency::total    123226500                       # number of ReadCleanReq miss cycles
system.l2.ReadSharedReq_miss_latency::cpu.data   4568543500                       # number of ReadSharedReq miss cycles
system.l2.ReadSharedReq_miss_latency::total   4568543500                       # number of ReadSharedReq miss cycles
system.l2.demand_miss_latency::cpu.inst     123226500                       # number of demand (read+write) miss cycles
system.l2.demand_miss_latency::cpu.data    5955095500                       # number of demand (read+write) miss cycles
system.l2.demand_miss_latency::total       6078322000                       # number of demand (read+write) miss cycles
system.l2.overall_miss_latency::cpu.inst    123226500                       # number of overall miss cycles
system.l2.overall_miss_latency::cpu.data   5955095500                       # number of overall miss cycles
system.l2.overall_miss_latency::total      6078322000                       # number of overall miss cycles
system.l2.WritebackDirty_accesses::writebacks        43972                       # number of WritebackDirty accesses(hits+misses)
system.l2.WritebackDirty_accesses::total        43972                       # number of WritebackDirty accesses(hits+misses)
system.l2.WritebackClean_accesses::writebacks          290                       # number of WritebackClean accesses(hits+misses)
system.l2.WritebackClean_accesses::total          290                       # number of WritebackClean accesses(hits+misses)
system.l2.UpgradeReq_accesses::cpu.data          3709                       # number of UpgradeReq accesses(hits+misses)
system.l2.UpgradeReq_accesses::total             3709                       # number of UpgradeReq accesses(hits+misses)
system.l2.ReadExReq_accesses::cpu.data           7101                       # number of ReadExReq accesses(hits+misses)
system.l2.ReadExReq_accesses::total              7101                       # number of ReadExReq accesses(hits+misses)
system.l2.ReadCleanReq_accesses::cpu.inst          757                       # number of ReadCleanReq accesses(hits+misses)
system.l2.ReadCleanReq_accesses::total            757                       # number of ReadCleanReq accesses(hits+misses)
system.l2.ReadSharedReq_accesses::cpu.data        39938                       # number of ReadSharedReq accesses(hits+misses)
system.l2.ReadSharedReq_accesses::total         39938                       # number of ReadSharedReq accesses(hits+misses)
system.l2.demand_accesses::cpu.inst               757                       # number of demand (read+write) accesses
system.l2.demand_accesses::cpu.data             47039                       # number of demand (read+write) accesses
system.l2.demand_accesses::total                47796                       # number of demand (read+write) accesses
system.l2.overall_accesses::cpu.inst              757                       # number of overall (read+write) accesses
system.l2.overall_accesses::cpu.data            47039                       # number of overall (read+write) accesses
system.l2.overall_accesses::total               47796                       # number of overall (read+write) accesses
system.l2.ReadExReq_miss_rate::cpu.data      0.960006                       # miss rate for ReadExReq accesses
system.l2.ReadExReq_miss_rate::total         0.960006                       # miss rate for ReadExReq accesses
system.l2.ReadCleanReq_miss_rate::cpu.inst     0.974901                       # miss rate for ReadCleanReq accesses
system.l2.ReadCleanReq_miss_rate::total      0.974901                       # miss rate for ReadCleanReq accesses
system.l2.ReadSharedReq_miss_rate::cpu.data     0.460564                       # miss rate for ReadSharedReq accesses
system.l2.ReadSharedReq_miss_rate::total     0.460564                       # miss rate for ReadSharedReq accesses
system.l2.demand_miss_rate::cpu.inst         0.974901                       # miss rate for demand accesses
system.l2.demand_miss_rate::cpu.data         0.535960                       # miss rate for demand accesses
system.l2.demand_miss_rate::total            0.542912                       # miss rate for demand accesses
system.l2.overall_miss_rate::cpu.inst        0.974901                       # miss rate for overall accesses
system.l2.overall_miss_rate::cpu.data        0.535960                       # miss rate for overall accesses
system.l2.overall_miss_rate::total           0.542912                       # miss rate for overall accesses
system.l2.ReadExReq_avg_miss_latency::cpu.data 203396.215344                       # average ReadExReq miss latency
system.l2.ReadExReq_avg_miss_latency::total 203396.215344                       # average ReadExReq miss latency
system.l2.ReadCleanReq_avg_miss_latency::cpu.inst 166973.577236                       # average ReadCleanReq miss latency
system.l2.ReadCleanReq_avg_miss_latency::total 166973.577236                       # average ReadCleanReq miss latency
system.l2.ReadSharedReq_avg_miss_latency::cpu.data 248371.398282                       # average ReadSharedReq miss latency
system.l2.ReadSharedReq_avg_miss_latency::total 248371.398282                       # average ReadSharedReq miss latency
system.l2.demand_avg_miss_latency::cpu.inst 166973.577236                       # average overall miss latency
system.l2.demand_avg_miss_latency::cpu.data 236210.205863                       # average overall miss latency
system.l2.demand_avg_miss_latency::total 234241.088289                       # average overall miss latency
system.l2.overall_avg_miss_latency::cpu.inst 166973.577236                       # average overall miss latency
system.l2.overall_avg_miss_latency::cpu.data 236210.205863                       # average overall miss latency
system.l2.overall_avg_miss_latency::total 234241.088289                       # average overall miss latency
system.l2.blocked_cycles::no_mshrs                  0                       # number of cycles access was blocked
system.l2.blocked_cycles::no_targets                0                       # number of cycles access was blocked
system.l2.blocked::no_mshrs                         0                       # number of cycles access was blocked
system.l2.blocked::no_targets                       0                       # number of cycles access was blocked
system.l2.avg_blocked_cycles::no_mshrs            nan                       # average number of cycles each access was blocked
system.l2.avg_blocked_cycles::no_targets          nan                       # average number of cycles each access was blocked
system.l2.writebacks::writebacks                22013                       # number of writebacks
system.l2.writebacks::total                     22013                       # number of writebacks
system.l2.CleanEvict_mshr_misses::writebacks           22                       # number of CleanEvict MSHR misses
system.l2.CleanEvict_mshr_misses::total            22                       # number of CleanEvict MSHR misses
system.l2.ReadExReq_mshr_misses::cpu.data         6817                       # number of ReadExReq MSHR misses
system.l2.ReadExReq_mshr_misses::total           6817                       # number of ReadExReq MSHR misses
system.l2.ReadCleanReq_mshr_misses::cpu.inst          738                       # number of ReadCleanReq MSHR misses
system.l2.ReadCleanReq_mshr_misses::total          738                       # number of ReadCleanReq MSHR misses
system.l2.ReadSharedReq_mshr_misses::cpu.data        18394                       # number of ReadSharedReq MSHR misses
system.l2.ReadSharedReq_mshr_misses::total        18394                       # number of ReadSharedReq MSHR misses
system.l2.demand_mshr_misses::cpu.inst            738                       # number of demand (read+write) MSHR misses
system.l2.demand_mshr_misses::cpu.data          25211                       # number of demand (read+write) MSHR misses
system.l2.demand_mshr_misses::total             25949                       # number of demand (read+write) MSHR misses
system.l2.overall_mshr_misses::cpu.inst           738                       # number of overall MSHR misses
system.l2.overall_mshr_misses::cpu.data         25211                       # number of overall MSHR misses
system.l2.overall_mshr_misses::total            25949                       # number of overall MSHR misses
system.l2.ReadExReq_mshr_miss_latency::cpu.data   1318382000                       # number of ReadExReq MSHR miss cycles
system.l2.ReadExReq_mshr_miss_latency::total   1318382000                       # number of ReadExReq MSHR miss cycles
system.l2.ReadCleanReq_mshr_miss_latency::cpu.inst    115846500                       # number of ReadCleanReq MSHR miss cycles
system.l2.ReadCleanReq_mshr_miss_latency::total    115846500                       # number of ReadCleanReq MSHR miss cycles
system.l2.ReadSharedReq_mshr_miss_latency::cpu.data   4384603500                       # number of ReadSharedReq MSHR miss cycles
system.l2.ReadSharedReq_mshr_miss_latency::total   4384603500                       # number of ReadSharedReq MSHR miss cycles
system.l2.demand_mshr_miss_latency::cpu.inst    115846500                       # number of demand (read+write) MSHR miss cycles
system.l2.demand_mshr_miss_latency::cpu.data   5702985500                       # number of demand (read+write) MSHR miss cycles
system.l2.demand_mshr_miss_latency::total   5818832000                       # number of demand (read+write) MSHR miss cycles
system.l2.overall_mshr_miss_latency::cpu.inst    115846500                       # number of overall MSHR miss cycles
system.l2.overall_mshr_miss_latency::cpu.data   5702985500                       # number of overall MSHR miss cycles
system.l2.overall_mshr_miss_latency::total   5818832000                       # number of overall MSHR miss cycles
system.l2.CleanEvict_mshr_miss_rate::writebacks          inf                       # mshr miss rate for CleanEvict accesses
system.l2.CleanEvict_mshr_miss_rate::total          inf                       # mshr miss rate for CleanEvict accesses
system.l2.ReadExReq_mshr_miss_rate::cpu.data     0.960006                       # mshr miss rate for ReadExReq accesses
system.l2.ReadExReq_mshr_miss_rate::total     0.960006                       # mshr miss rate for ReadExReq accesses
system.l2.ReadCleanReq_mshr_miss_rate::cpu.inst     0.974901                       # mshr miss rate for ReadCleanReq accesses
system.l2.ReadCleanReq_mshr_miss_rate::total     0.974901                       # mshr miss rate for ReadCleanReq accesses
system.l2.ReadSharedReq_mshr_miss_rate::cpu.data     0.460564                       # mshr miss rate for ReadSharedReq accesses
system.l2.ReadSharedReq_mshr_miss_rate::total     0.460564                       # mshr miss rate for ReadSharedReq accesses
system.l2.demand_mshr_miss_rate::cpu.inst     0.974901                       # mshr miss rate for demand accesses
system.l2.demand_mshr_miss_rate::cpu.data     0.535960                       # mshr miss rate for demand accesses
system.l2.demand_mshr_miss_rate::total       0.542912                       # mshr miss rate for demand accesses
system.l2.overall_mshr_miss_rate::cpu.inst     0.974901                       # mshr miss rate for overall accesses
system.l2.overall_mshr_miss_rate::cpu.data     0.535960                       # mshr miss rate for overall accesses
system.l2.overall_mshr_miss_rate::total      0.542912                       # mshr miss rate for overall accesses
system.l2.ReadExReq_avg_mshr_miss_latency::cpu.data 193396.215344                       # average ReadExReq mshr miss latency
system.l2.ReadExReq_avg_mshr_miss_latency::total 193396.215344                       # average ReadExReq mshr miss latency
system.l2.ReadCleanReq_avg_mshr_miss_latency::cpu.inst 156973.577236                       # average ReadCleanReq mshr miss latency
system.l2.ReadCleanReq_avg_mshr_miss_latency::total 156973.577236                       # average ReadCleanReq mshr miss latency
system.l2.ReadSharedReq_avg_mshr_miss_latency::cpu.data 238371.398282                       # average ReadSharedReq mshr miss latency
system.l2.ReadSharedReq_avg_mshr_miss_latency::total 238371.398282                       # average ReadSharedReq mshr miss latency
system.l2.demand_avg_mshr_miss_latency::cpu.inst 156973.577236                       # average overall mshr miss latency
system.l2.demand_avg_mshr_miss_latency::cpu.data 226210.205863                       # average overall mshr miss latency
system.l2.demand_avg_mshr_miss_latency::total 224241.088289                       # average overall mshr miss latency
system.l2.overall_avg_mshr_miss_latency::cpu.inst 156973.577236                       # average overall mshr miss latency
system.l2.overall_avg_mshr_miss_latency::cpu.data 226210.205863                       # average overall mshr miss latency
system.l2.overall_avg_mshr_miss_latency::total 224241.088289                       # average overall mshr miss latency
system.l2.replacements                          24057                       # number of replacements
system.l3.tags.pwrStateResidencyTicks::UNDEFINED  92674712000                       # Cumulative time (in ticks) in various power states
system.l3.tags.tagsinuse                  2039.141528                       # Cycle average of tags in use
system.l3.tags.total_refs                       48548                       # Total number of references to valid blocks.
system.l3.tags.sampled_refs                     38817                       # Sample count of references to valid blocks.
system.l3.tags.avg_refs                      1.250689                       # Average number of references to valid blocks.
system.l3.tags.warmup_cycle                    418000                       # Cycle when the warmup percentage was hit.
system.l3.tags.occ_blocks::writebacks     1143.258154                       # Average occupied blocks per requestor
system.l3.tags.occ_blocks::cpu.inst         16.596019                       # Average occupied blocks per requestor
system.l3.tags.occ_blocks::cpu.data        879.287355                       # Average occupied blocks per requestor
system.l3.tags.occ_percent::writebacks       0.558232                       # Average percentage of cache occupancy
system.l3.tags.occ_percent::cpu.inst         0.008104                       # Average percentage of cache occupancy
system.l3.tags.occ_percent::cpu.data         0.429340                       # Average percentage of cache occupancy
system.l3.tags.occ_percent::total            0.995675                       # Average percentage of cache occupancy
system.l3.tags.occ_task_id_blocks::1024          2048                       # Occupied blocks per task id
system.l3.tags.age_task_id_blocks_1024::0           53                       # Occupied blocks per task id
system.l3.tags.age_task_id_blocks_1024::1           96                       # Occupied blocks per task id
system.l3.tags.age_task_id_blocks_1024::2            7                       # Occupied blocks per task id
system.l3.tags.age_task_id_blocks_1024::3           13                       # Occupied blocks per task id
system.l3.tags.age_task_id_blocks_1024::4         1879                       # Occupied blocks per task id
system.l3.tags.occ_task_id_percent::1024            1                       # Percentage of cache occupancy per task id
system.l3.tags.tag_accesses                    137705                       # Number of tag accesses
system.l3.tags.data_accesses                   137705                       # Number of data accesses
system.l3.pwrStateResidencyTicks::UNDEFINED  92674712000                       # Cumulative time (in ticks) in various power states
system.l3.WritebackDirty_hits::writebacks        22013                       # number of WritebackDirty hits
system.l3.WritebackDirty_hits::total            22013                       # number of WritebackDirty hits
system.l3.ReadExReq_hits::cpu.data                 37                       # number of ReadExReq hits
system.l3.ReadExReq_hits::total                    37                       # number of ReadExReq hits
system.l3.ReadSharedReq_hits::cpu.inst              1                       # number of ReadSharedReq hits
system.l3.ReadSharedReq_hits::cpu.data           4543                       # number of ReadSharedReq hits
system.l3.ReadSharedReq_hits::total              4544                       # number of ReadSharedReq hits
system.l3.demand_hits::cpu.inst                     1                       # number of demand (read+write) hits
system.l3.demand_hits::cpu.data                  4580                       # number of demand (read+write) hits
system.l3.demand_hits::total                     4581                       # number of demand (read+write) hits
system.l3.overall_hits::cpu.inst                    1                       # number of overall hits
system.l3.overall_hits::cpu.data                 4580                       # number of overall hits
system.l3.overall_hits::total                    4581                       # number of overall hits
system.l3.ReadExReq_misses::cpu.data             6780                       # number of ReadExReq misses
system.l3.ReadExReq_misses::total                6780                       # number of ReadExReq misses
system.l3.ReadSharedReq_misses::cpu.inst          737                       # number of ReadSharedReq misses
system.l3.ReadSharedReq_misses::cpu.data        13851                       # number of ReadSharedReq misses
system.l3.ReadSharedReq_misses::total           14588                       # number of ReadSharedReq misses
system.l3.demand_misses::cpu.inst                 737                       # number of demand (read+write) misses
system.l3.demand_misses::cpu.data               20631                       # number of demand (read+write) misses
system.l3.demand_misses::total                  21368                       # number of demand (read+write) misses
system.l3.overall_misses::cpu.inst                737                       # number of overall misses
system.l3.overall_misses::cpu.data              20631                       # number of overall misses
system.l3.overall_misses::total                 21368                       # number of overall misses
system.l3.ReadExReq_miss_latency::cpu.data   1243006500                       # number of ReadExReq miss cycles
system.l3.ReadExReq_miss_latency::total    1243006500                       # number of ReadExReq miss cycles
system.l3.ReadSharedReq_miss_latency::cpu.inst    107718000                       # number of ReadSharedReq miss cycles
system.l3.ReadSharedReq_miss_latency::cpu.data   4134568000                       # number of ReadSharedReq miss cycles
system.l3.ReadSharedReq_miss_latency::total   4242286000                       # number of ReadSharedReq miss cycles
system.l3.demand_miss_latency::cpu.inst     107718000                       # number of demand (read+write) miss cycles
system.l3.demand_miss_latency::cpu.data    5377574500                       # number of demand (read+write) miss cycles
system.l3.demand_miss_latency::total       5485292500                       # number of demand (read+write) miss cycles
system.l3.overall_miss_latency::cpu.inst    107718000                       # number of overall miss cycles
system.l3.overall_miss_latency::cpu.data   5377574500                       # number of overall miss cycles
system.l3.overall_miss_latency::total      5485292500                       # number of overall miss cycles
system.l3.WritebackDirty_accesses::writebacks        22013                       # number of WritebackDirty accesses(hits+misses)
system.l3.WritebackDirty_accesses::total        22013                       # number of WritebackDirty accesses(hits+misses)
system.l3.ReadExReq_accesses::cpu.data           6817                       # number of ReadExReq accesses(hits+misses)
system.l3.ReadExReq_accesses::total              6817                       # number of ReadExReq accesses(hits+misses)
system.l3.ReadSharedReq_accesses::cpu.inst          738                       # number of ReadSharedReq accesses(hits+misses)
system.l3.ReadSharedReq_accesses::cpu.data        18394                       # number of ReadSharedReq accesses(hits+misses)
system.l3.ReadSharedReq_accesses::total         19132                       # number of ReadSharedReq accesses(hits+misses)
system.l3.demand_accesses::cpu.inst               738                       # number of demand (read+write) accesses
system.l3.demand_accesses::cpu.data             25211                       # number of demand (read+write) accesses
system.l3.demand_accesses::total                25949                       # number of demand (read+write) accesses
system.l3.overall_accesses::cpu.inst              738                       # number of overall (read+write) accesses
system.l3.overall_accesses::cpu.data            25211                       # number of overall (read+write) accesses
system.l3.overall_accesses::total               25949                       # number of overall (read+write) accesses
system.l3.ReadExReq_miss_rate::cpu.data      0.994572                       # miss rate for ReadExReq accesses
system.l3.ReadExReq_miss_rate::total         0.994572                       # miss rate for ReadExReq accesses
system.l3.ReadSharedReq_miss_rate::cpu.inst     0.998645                       # miss rate for ReadSharedReq accesses
system.l3.ReadSharedReq_miss_rate::cpu.data     0.753017                       # miss rate for ReadSharedReq accesses
system.l3.ReadSharedReq_miss_rate::total     0.762492                       # miss rate for ReadSharedReq accesses
system.l3.demand_miss_rate::cpu.inst         0.998645                       # miss rate for demand accesses
system.l3.demand_miss_rate::cpu.data         0.818333                       # miss rate for demand accesses
system.l3.demand_miss_rate::total            0.823461                       # miss rate for demand accesses
system.l3.overall_miss_rate::cpu.inst        0.998645                       # miss rate for overall accesses
system.l3.overall_miss_rate::cpu.data        0.818333                       # miss rate for overall accesses
system.l3.overall_miss_rate::total           0.823461                       # miss rate for overall accesses
system.l3.ReadExReq_avg_miss_latency::cpu.data 183334.292035                       # average ReadExReq miss latency
system.l3.ReadExReq_avg_miss_latency::total 183334.292035                       # average ReadExReq miss latency
system.l3.ReadSharedReq_avg_miss_latency::cpu.inst 146157.394844                       # average ReadSharedReq miss latency
system.l3.ReadSharedReq_avg_miss_latency::cpu.data 298503.212764                       # average ReadSharedReq miss latency
system.l3.ReadSharedReq_avg_miss_latency::total 290806.553332                       # average ReadSharedReq miss latency
system.l3.demand_avg_miss_latency::cpu.inst 146157.394844                       # average overall miss latency
system.l3.demand_avg_miss_latency::cpu.data 260655.057923                       # average overall miss latency
system.l3.demand_avg_miss_latency::total 256705.938787                       # average overall miss latency
system.l3.overall_avg_miss_latency::cpu.inst 146157.394844                       # average overall miss latency
system.l3.overall_avg_miss_latency::cpu.data 260655.057923                       # average overall miss latency
system.l3.overall_avg_miss_latency::total 256705.938787                       # average overall miss latency
system.l3.blocked_cycles::no_mshrs                  0                       # number of cycles access was blocked
system.l3.blocked_cycles::no_targets                0                       # number of cycles access was blocked
system.l3.blocked::no_mshrs                         0                       # number of cycles access was blocked
system.l3.blocked::no_targets                       0                       # number of cycles access was blocked
system.l3.avg_blocked_cycles::no_mshrs            nan                       # average number of cycles each access was blocked
system.l3.avg_blocked_cycles::no_targets          nan                       # average number of cycles each access was blocked
system.l3.writebacks::writebacks                16461                       # number of writebacks
system.l3.writebacks::total                     16461                       # number of writebacks
system.l3.CleanEvict_mshr_misses::writebacks          896                       # number of CleanEvict MSHR misses
system.l3.CleanEvict_mshr_misses::total           896                       # number of CleanEvict MSHR misses
system.l3.ReadExReq_mshr_misses::cpu.data         6780                       # number of ReadExReq MSHR misses
system.l3.ReadExReq_mshr_misses::total           6780                       # number of ReadExReq MSHR misses
system.l3.ReadSharedReq_mshr_misses::cpu.inst          737                       # number of ReadSharedReq MSHR misses
system.l3.ReadSharedReq_mshr_misses::cpu.data        13851                       # number of ReadSharedReq MSHR misses
system.l3.ReadSharedReq_mshr_misses::total        14588                       # number of ReadSharedReq MSHR misses
system.l3.demand_mshr_misses::cpu.inst            737                       # number of demand (read+write) MSHR misses
system.l3.demand_mshr_misses::cpu.data          20631                       # number of demand (read+write) MSHR misses
system.l3.demand_mshr_misses::total             21368                       # number of demand (read+write) MSHR misses
system.l3.overall_mshr_misses::cpu.inst           737                       # number of overall MSHR misses
system.l3.overall_mshr_misses::cpu.data         20631                       # number of overall MSHR misses
system.l3.overall_mshr_misses::total            21368                       # number of overall MSHR misses
system.l3.ReadExReq_mshr_miss_latency::cpu.data   1175206500                       # number of ReadExReq MSHR miss cycles
system.l3.ReadExReq_mshr_miss_latency::total   1175206500                       # number of ReadExReq MSHR miss cycles
system.l3.ReadSharedReq_mshr_miss_latency::cpu.inst    100348000                       # number of ReadSharedReq MSHR miss cycles
system.l3.ReadSharedReq_mshr_miss_latency::cpu.data   3996058000                       # number of ReadSharedReq MSHR miss cycles
system.l3.ReadSharedReq_mshr_miss_latency::total   4096406000                       # number of ReadSharedReq MSHR miss cycles
system.l3.demand_mshr_miss_latency::cpu.inst    100348000                       # number of demand (read+write) MSHR miss cycles
system.l3.demand_mshr_miss_latency::cpu.data   5171264500                       # number of demand (read+write) MSHR miss cycles
system.l3.demand_mshr_miss_latency::total   5271612500                       # number of demand (read+write) MSHR miss cycles
system.l3.overall_mshr_miss_latency::cpu.inst    100348000                       # number of overall MSHR miss cycles
system.l3.overall_mshr_miss_latency::cpu.data   5171264500                       # number of overall MSHR miss cycles
system.l3.overall_mshr_miss_latency::total   5271612500                       # number of overall MSHR miss cycles
system.l3.CleanEvict_mshr_miss_rate::writebacks          inf                       # mshr miss rate for CleanEvict accesses
system.l3.CleanEvict_mshr_miss_rate::total          inf                       # mshr miss rate for CleanEvict accesses
system.l3.ReadExReq_mshr_miss_rate::cpu.data     0.994572                       # mshr miss rate for ReadExReq accesses
system.l3.ReadExReq_mshr_miss_rate::total     0.994572                       # mshr miss rate for ReadExReq accesses
system.l3.ReadSharedReq_mshr_miss_rate::cpu.inst     0.998645                       # mshr miss rate for ReadSharedReq accesses
system.l3.ReadSharedReq_mshr_miss_rate::cpu.data     0.753017                       # mshr miss rate for ReadSharedReq accesses
system.l3.ReadSharedReq_mshr_miss_rate::total     0.762492                       # mshr miss rate for ReadSharedReq accesses
system.l3.demand_mshr_miss_rate::cpu.inst     0.998645                       # mshr miss rate for demand accesses
system.l3.demand_mshr_miss_rate::cpu.data     0.818333                       # mshr miss rate for demand accesses
system.l3.demand_mshr_miss_rate::total       0.823461                       # mshr miss rate for demand accesses
system.l3.overall_mshr_miss_rate::cpu.inst     0.998645                       # mshr miss rate for overall accesses
system.l3.overall_mshr_miss_rate::cpu.data     0.818333                       # mshr miss rate for overall accesses
system.l3.overall_mshr_miss_rate::total      0.823461                       # mshr miss rate for overall accesses
system.l3.ReadExReq_avg_mshr_miss_latency::cpu.data 173334.292035                       # average ReadExReq mshr miss latency
system.l3.ReadExReq_avg_mshr_miss_latency::total 173334.292035                       # average ReadExReq mshr miss latency
system.l3.ReadSharedReq_avg_mshr_miss_latency::cpu.inst 136157.394844                       # average ReadSharedReq mshr miss latency
system.l3.ReadSharedReq_avg_mshr_miss_latency::cpu.data 288503.212764                       # average ReadSharedReq mshr miss latency
system.l3.ReadSharedReq_avg_mshr_miss_latency::total 280806.553332                       # average ReadSharedReq mshr miss latency
system.l3.demand_avg_mshr_miss_latency::cpu.inst 136157.394844                       # average overall mshr miss latency
system.l3.demand_avg_mshr_miss_latency::cpu.data 250655.057923                       # average overall mshr miss latency
system.l3.demand_avg_mshr_miss_latency::total 246705.938787                       # average overall mshr miss latency
system.l3.overall_avg_mshr_miss_latency::cpu.inst 136157.394844                       # average overall mshr miss latency
system.l3.overall_avg_mshr_miss_latency::cpu.data 250655.057923                       # average overall mshr miss latency
system.l3.overall_avg_mshr_miss_latency::total 246705.938787                       # average overall mshr miss latency
system.l3.replacements                          36769                       # number of replacements
system.membus.snoop_filter.tot_requests         42333                       # Total number of requests made to the snoop filter.
system.membus.snoop_filter.hit_single_requests        20965                       # Number of requests hitting in the snoop filter with a single holder of the requested data.
system.membus.snoop_filter.hit_multi_requests            0                       # Number of requests hitting in the snoop filter with multiple (>1) holders of the requested data.
system.membus.snoop_filter.tot_snoops               0                       # Total number of snoops made to the snoop filter.
system.membus.snoop_filter.hit_single_snoops            0                       # Number of snoops hitting in the snoop filter with a single holder of the requested data.
system.membus.snoop_filter.hit_multi_snoops            0                       # Number of snoops hitting in the snoop filter with multiple (>1) holders of the requested data.
system.membus.pwrStateResidencyTicks::UNDEFINED  92674712000                       # Cumulative time (in ticks) in various power states
system.membus.trans_dist::ReadResp              14588                       # Transaction distribution
system.membus.trans_dist::WritebackDirty        16461                       # Transaction distribution
system.membus.trans_dist::CleanEvict             1405                       # Transaction distribution
system.membus.trans_dist::ReadExReq              6780                       # Transaction distribution
system.membus.trans_dist::ReadExResp             6780                       # Transaction distribution
system.membus.trans_dist::ReadSharedReq         14588                       # Transaction distribution
system.membus.pkt_count_system.l3.mem_side::system.mem_ctrls.port        60602                       # Packet count per connected master and slave (bytes)
system.membus.pkt_count_system.l3.mem_side::total        60602                       # Packet count per connected master and slave (bytes)
system.membus.pkt_count::total                  60602                       # Packet count per connected master and slave (bytes)
system.membus.pkt_size_system.l3.mem_side::system.mem_ctrls.port      2421056                       # Cumulative packet size per connected master and slave (bytes)
system.membus.pkt_size_system.l3.mem_side::total      2421056                       # Cumulative packet size per connected master and slave (bytes)
system.membus.pkt_size::total                 2421056                       # Cumulative packet size per connected master and slave (bytes)
system.membus.snoops                                0                       # Total snoops (count)
system.membus.snoopTraffic                          0                       # Total snoop traffic (bytes)
system.membus.snoop_fanout::samples             21368                       # Request fanout histogram
system.membus.snoop_fanout::mean                    0                       # Request fanout histogram
system.membus.snoop_fanout::stdev                   0                       # Request fanout histogram
system.membus.snoop_fanout::underflows              0      0.00%      0.00% # Request fanout histogram
system.membus.snoop_fanout::0                   21368    100.00%    100.00% # Request fanout histogram
system.membus.snoop_fanout::1                       0      0.00%    100.00% # Request fanout histogram
system.membus.snoop_fanout::overflows               0      0.00%    100.00% # Request fanout histogram
system.membus.snoop_fanout::min_value               0                       # Request fanout histogram
system.membus.snoop_fanout::max_value               0                       # Request fanout histogram
system.membus.snoop_fanout::total               21368                       # Request fanout histogram
system.membus.reqLayer2.occupancy           108190000                       # Layer occupancy (ticks)
system.membus.reqLayer2.utilization               0.1                       # Layer utilization (%)
system.membus.respLayer1.occupancy          106852500                       # Layer occupancy (ticks)
system.membus.respLayer1.utilization              0.1                       # Layer utilization (%)
system.tol2bus.snoop_filter.tot_requests        98322                       # Total number of requests made to the snoop filter.
system.tol2bus.snoop_filter.hit_single_requests        50526                       # Number of requests hitting in the snoop filter with a single holder of the requested data.
system.tol2bus.snoop_filter.hit_multi_requests            1                       # Number of requests hitting in the snoop filter with multiple (>1) holders of the requested data.
system.tol2bus.snoop_filter.tot_snoops           9315                       # Total number of snoops made to the snoop filter.
system.tol2bus.snoop_filter.hit_single_snoops         9315                       # Number of snoops hitting in the snoop filter with a single holder of the requested data.
system.tol2bus.snoop_filter.hit_multi_snoops            0                       # Number of snoops hitting in the snoop filter with multiple (>1) holders of the requested data.
system.tol2bus.pwrStateResidencyTicks::UNDEFINED  92674712000                       # Cumulative time (in ticks) in various power states
system.tol2bus.trans_dist::ReadResp             40695                       # Transaction distribution
system.tol2bus.trans_dist::WritebackDirty        82446                       # Transaction distribution
system.tol2bus.trans_dist::WritebackClean          290                       # Transaction distribution
system.tol2bus.trans_dist::CleanEvict           24907                       # Transaction distribution
system.tol2bus.trans_dist::UpgradeReq            3709                       # Transaction distribution
system.tol2bus.trans_dist::UpgradeResp           3709                       # Transaction distribution
system.tol2bus.trans_dist::ReadExReq             7101                       # Transaction distribution
system.tol2bus.trans_dist::ReadExResp            7101                       # Transaction distribution
system.tol2bus.trans_dist::ReadCleanReq           757                       # Transaction distribution
system.tol2bus.trans_dist::ReadSharedReq        39938                       # Transaction distribution
system.tol2bus.pkt_count_system.cpu.icache.mem_side::system.l2.cpu_side         1804                       # Packet count per connected master and slave (bytes)
system.tol2bus.pkt_count_system.cpu.dcache.mem_side::system.l2.cpu_side       148023                       # Packet count per connected master and slave (bytes)
system.tol2bus.pkt_count::total                149827                       # Packet count per connected master and slave (bytes)
system.tol2bus.pkt_size_system.cpu.icache.mem_side::system.l2.cpu_side        67008                       # Cumulative packet size per connected master and slave (bytes)
system.tol2bus.pkt_size_system.cpu.dcache.mem_side::system.l2.cpu_side      5824704                       # Cumulative packet size per connected master and slave (bytes)
system.tol2bus.pkt_size::total                5891712                       # Cumulative packet size per connected master and slave (bytes)
system.tol2bus.snoops                           60826                       # Total snoops (count)
system.tol2bus.snoopTraffic                   2462336                       # Total snoop traffic (bytes)
system.tol2bus.snoop_fanout::samples           112331                       # Request fanout histogram
system.tol2bus.snoop_fanout::mean            0.082933                       # Request fanout histogram
system.tol2bus.snoop_fanout::stdev           0.275783                       # Request fanout histogram
system.tol2bus.snoop_fanout::underflows             0      0.00%      0.00% # Request fanout histogram
system.tol2bus.snoop_fanout::0                 103015     91.71%     91.71% # Request fanout histogram
system.tol2bus.snoop_fanout::1                   9316      8.29%    100.00% # Request fanout histogram
system.tol2bus.snoop_fanout::2                      0      0.00%    100.00% # Request fanout histogram
system.tol2bus.snoop_fanout::3                      0      0.00%    100.00% # Request fanout histogram
system.tol2bus.snoop_fanout::4                      0      0.00%    100.00% # Request fanout histogram
system.tol2bus.snoop_fanout::overflows              0      0.00%    100.00% # Request fanout histogram
system.tol2bus.snoop_fanout::min_value              0                       # Request fanout histogram
system.tol2bus.snoop_fanout::max_value              1                       # Request fanout histogram
system.tol2bus.snoop_fanout::total             112331                       # Request fanout histogram
system.tol2bus.reqLayer0.occupancy           93423000                       # Layer occupancy (ticks)
system.tol2bus.reqLayer0.utilization              0.1                       # Layer utilization (%)
system.tol2bus.respLayer0.occupancy           1135500                       # Layer occupancy (ticks)
system.tol2bus.respLayer0.utilization             0.0                       # Layer utilization (%)
system.tol2bus.respLayer1.occupancy          72413000                       # Layer occupancy (ticks)
system.tol2bus.respLayer1.utilization             0.1                       # Layer utilization (%)
system.tol3bus.pwrStateResidencyTicks::UNDEFINED  92674712000                       # Cumulative time (in ticks) in various power states
system.tol3bus.trans_dist::ReadResp             19132                       # Transaction distribution
system.tol3bus.trans_dist::WritebackDirty        38474                       # Transaction distribution
system.tol3bus.trans_dist::CleanEvict           21790                       # Transaction distribution
system.tol3bus.trans_dist::ReadExReq             6817                       # Transaction distribution
system.tol3bus.trans_dist::ReadExResp            6817                       # Transaction distribution
system.tol3bus.trans_dist::ReadSharedReq        19132                       # Transaction distribution
system.tol3bus.pkt_count_system.l2.mem_side::system.l3.cpu_side        75393                       # Packet count per connected master and slave (bytes)
system.tol3bus.pkt_size_system.l2.mem_side::system.l3.cpu_side      3069568                       # Cumulative packet size per connected master and slave (bytes)
system.tol3bus.snoops                           36769                       # Total snoops (count)
system.tol3bus.snoopTraffic                   1053504                       # Total snoop traffic (bytes)
system.tol3bus.snoop_fanout::samples            86213                       # Request fanout histogram
system.tol3bus.snoop_fanout::mean            0.426490                       # Request fanout histogram
system.tol3bus.snoop_fanout::stdev           0.494570                       # Request fanout histogram
system.tol3bus.snoop_fanout::underflows             0      0.00%      0.00% # Request fanout histogram
system.tol3bus.snoop_fanout::0                  49444     57.35%     57.35% # Request fanout histogram
system.tol3bus.snoop_fanout::1                  36769     42.65%    100.00% # Request fanout histogram
system.tol3bus.snoop_fanout::overflows              0      0.00%    100.00% # Request fanout histogram
system.tol3bus.snoop_fanout::min_value              0                       # Request fanout histogram
system.tol3bus.snoop_fanout::max_value              1                       # Request fanout histogram
system.tol3bus.snoop_fanout::total              86213                       # Request fanout histogram
system.tol3bus.reqLayer0.occupancy           46735000                       # Layer occupancy (ticks)
system.tol3bus.reqLayer0.utilization              0.1                       # Layer utilization (%)
system.tol3bus.respLayer0.occupancy          38923500                       # Layer occupancy (ticks)
system.tol3bus.respLayer0.utilization             0.0                       # Layer utilization (%)

---------- End Simulation Statistics   ----------
