
---------- Begin Simulation Statistics ----------
sim_seconds                                  0.093972                       # Number of seconds simulated
sim_ticks                                 93971891000                       # Number of ticks simulated
final_tick                                93971891000                       # Number of ticks from beginning of simulation (restored from checkpoints and never reset)
sim_freq                                 1000000000000                       # Frequency of simulated ticks
host_inst_rate                                1104035                       # Simulator instruction rate (inst/s)
host_op_rate                                  1821466                       # Simulator op (including micro ops) rate (op/s)
host_tick_rate                             2317504296                       # Simulator tick rate (ticks/s)
host_mem_usage                                 668420                       # Number of bytes of host memory used
host_seconds                                    40.55                       # Real time elapsed on the host
sim_insts                                    44767210                       # Number of instructions simulated
sim_ops                                      73858152                       # Number of ops (including micro ops) simulated
system.voltage_domain.voltage                       1                       # Voltage in Volts
system.clk_domain.clock                          1000                       # Clock period in ticks
system.mem_ctrls.pwrStateResidencyTicks::UNDEFINED  93971891000                       # Cumulative time (in ticks) in various power states
system.mem_ctrls.bytes_read::cpu.inst           47232                       # Number of bytes read from this memory
system.mem_ctrls.bytes_read::cpu.data         1365824                       # Number of bytes read from this memory
system.mem_ctrls.bytes_read::total            1413056                       # Number of bytes read from this memory
system.mem_ctrls.bytes_inst_read::cpu.inst        47232                       # Number of instructions bytes read from this memory
system.mem_ctrls.bytes_inst_read::total         47232                       # Number of instructions bytes read from this memory
system.mem_ctrls.bytes_written::writebacks      1079232                       # Number of bytes written to this memory
system.mem_ctrls.bytes_written::total         1079232                       # Number of bytes written to this memory
system.mem_ctrls.num_reads::cpu.inst              738                       # Number of read requests responded to by this memory
system.mem_ctrls.num_reads::cpu.data            21341                       # Number of read requests responded to by this memory
system.mem_ctrls.num_reads::total               22079                       # Number of read requests responded to by this memory
system.mem_ctrls.num_writes::writebacks         16863                       # Number of write requests responded to by this memory
system.mem_ctrls.num_writes::total              16863                       # Number of write requests responded to by this memory
system.mem_ctrls.bw_read::cpu.inst             502618                       # Total read bandwidth from this memory (bytes/s)
system.mem_ctrls.bw_read::cpu.data           14534389                       # Total read bandwidth from this memory (bytes/s)
system.mem_ctrls.bw_read::total              15037007                       # Total read bandwidth from this memory (bytes/s)
system.mem_ctrls.bw_inst_read::cpu.inst        502618                       # Instruction read bandwidth from this memory (bytes/s)
system.mem_ctrls.bw_inst_read::total           502618                       # Instruction read bandwidth from this memory (bytes/s)
system.mem_ctrls.bw_write::writebacks        11484626                       # Write bandwidth from this memory (bytes/s)
system.mem_ctrls.bw_write::total             11484626                       # Write bandwidth from this memory (bytes/s)
system.mem_ctrls.bw_total::writebacks        11484626                       # Total bandwidth to/from this memory (bytes/s)
system.mem_ctrls.bw_total::cpu.inst            502618                       # Total bandwidth to/from this memory (bytes/s)
system.mem_ctrls.bw_total::cpu.data          14534389                       # Total bandwidth to/from this memory (bytes/s)
system.mem_ctrls.bw_total::total             26521633                       # Total bandwidth to/from this memory (bytes/s)
system.pwrStateResidencyTicks::UNDEFINED  93971891000                       # Cumulative time (in ticks) in various power states
system.cpu_voltage_domain.voltage                   1                       # Voltage in Volts
system.cpu_clk_domain.clock                       500                       # Clock period in ticks
system.cpu.dtb.walker.pwrStateResidencyTicks::UNDEFINED  93971891000                       # Cumulative time (in ticks) in various power states
system.cpu.dtb.rdAccesses                    20998344                       # TLB accesses on read requests
system.cpu.dtb.wrAccesses                     5824771                       # TLB accesses on write requests
system.cpu.dtb.rdMisses                           229                       # TLB misses on read requests
system.cpu.dtb.wrMisses                           111                       # TLB misses on write requests
system.cpu.apic_clk_domain.clock                 8000                       # Clock period in ticks
system.cpu.interrupts.pwrStateResidencyTicks::UNDEFINED  93971891000                       # Cumulative time (in ticks) in various power states
system.cpu.itb.walker.pwrStateResidencyTicks::UNDEFINED  93971891000                       # Cumulative time (in ticks) in various power states
system.cpu.itb.rdAccesses                           0                       # TLB accesses on read requests
system.cpu.itb.wrAccesses                    59427986                       # TLB accesses on write requests
system.cpu.itb.rdMisses                             0                       # TLB misses on read requests
system.cpu.itb.wrMisses                            78                       # TLB misses on write requests
system.cpu.workload.numSyscalls                    25                       # Number of system calls
system.cpu.pwrStateResidencyTicks::ON     93971891000                       # Cumulative time (in ticks) in various power states
system.cpu.numCycles                        187943782                       # number of cpu cycles simulated
system.cpu.numWorkItemsStarted                      0                       # number of work items this cpu started
system.cpu.numWorkItemsCompleted                    0                       # number of work items this cpu completed
system.cpu.committedInsts                    44767210                       # Number of instructions committed
system.cpu.committedOps                      73858152                       # Number of ops (including micro ops) committed
system.cpu.num_int_alu_accesses              73334161                       # Number of integer alu accesses
system.cpu.num_fp_alu_accesses                   4314                       # Number of float alu accesses
system.cpu.num_vec_alu_accesses                     0                       # Number of vector alu accesses
system.cpu.num_func_calls                      945802                       # number of times a function call or return occured
system.cpu.num_conditional_control_insts      4246009                       # number of instructions that are conditional controls
system.cpu.num_int_insts                     73334161                       # number of integer instructions
system.cpu.num_fp_insts                          4314                       # number of float instructions
system.cpu.num_vec_insts                            0                       # number of vector instructions
system.cpu.num_int_register_reads           164562860                       # number of times the integer registers were read
system.cpu.num_int_register_writes           64003513                       # number of times the integer registers were written
system.cpu.num_fp_register_reads                 6414                       # number of times the floating registers were read
system.cpu.num_fp_register_writes                3205                       # number of times the floating registers were written
system.cpu.num_vec_register_reads                   0                       # number of times the vector registers were read
system.cpu.num_vec_register_writes                  0                       # number of times the vector registers were written
system.cpu.num_cc_register_reads             27728786                       # number of times the CC registers were read
system.cpu.num_cc_register_writes            24993257                       # number of times the CC registers were written
system.cpu.num_mem_refs                      26823106                       # number of memory refs
system.cpu.num_load_insts                    20998335                       # Number of load instructions
system.cpu.num_store_insts                    5824771                       # Number of store instructions
system.cpu.num_idle_cycles                          0                       # Number of idle cycles
system.cpu.num_busy_cycles                  187943782                       # Number of busy cycles
system.cpu.not_idle_fraction                        1                       # Percentage of non-idle cycles
system.cpu.idle_fraction                            0                       # Percentage of idle cycles
system.cpu.Branches                           5689858                       # Number of branches fetched
system.cpu.op_class::No_OpClass                177077      0.24%      0.24% # Class of executed instruction
system.cpu.op_class::IntAlu                  45851162     62.08%     62.32% # Class of executed instruction
system.cpu.op_class::IntMult                       15      0.00%     62.32% # Class of executed instruction
system.cpu.op_class::IntDiv                   1004199      1.36%     63.68% # Class of executed instruction
system.cpu.op_class::FloatAdd                     132      0.00%     63.68% # Class of executed instruction
system.cpu.op_class::FloatCmp                       0      0.00%     63.68% # Class of executed instruction
system.cpu.op_class::FloatCvt                       0      0.00%     63.68% # Class of executed instruction
system.cpu.op_class::FloatMult                      0      0.00%     63.68% # Class of executed instruction
system.cpu.op_class::FloatMultAcc                   0      0.00%     63.68% # Class of executed instruction
system.cpu.op_class::FloatDiv                       0      0.00%     63.68% # Class of executed instruction
system.cpu.op_class::FloatMisc                      0      0.00%     63.68% # Class of executed instruction
system.cpu.op_class::FloatSqrt                      0      0.00%     63.68% # Class of executed instruction
system.cpu.op_class::SimdAdd                      348      0.00%     63.68% # Class of executed instruction
system.cpu.op_class::SimdAddAcc                     0      0.00%     63.68% # Class of executed instruction
system.cpu.op_class::SimdAlu                      684      0.00%     63.68% # Class of executed instruction
system.cpu.op_class::SimdCmp                        0      0.00%     63.68% # Class of executed instruction
system.cpu.op_class::SimdCvt                      770      0.00%     63.68% # Class of executed instruction
system.cpu.op_class::SimdMisc                     524      0.00%     63.68% # Class of executed instruction
system.cpu.op_class::SimdMult                       0      0.00%     63.68% # Class of executed instruction
system.cpu.op_class::SimdMultAcc                    0      0.00%     63.68% # Class of executed instruction
system.cpu.op_class::SimdShift                    135      0.00%     63.68% # Class of executed instruction
system.cpu.op_class::SimdShiftAcc                   0      0.00%     63.68% # Class of executed instruction
system.cpu.op_class::SimdSqrt                       0      0.00%     63.68% # Class of executed instruction
system.cpu.op_class::SimdFloatAdd                   0      0.00%     63.68% # Class of executed instruction
system.cpu.op_class::SimdFloatAlu                   0      0.00%     63.68% # Class of executed instruction
system.cpu.op_class::SimdFloatCmp                   0      0.00%     63.68% # Class of executed instruction
system.cpu.op_class::SimdFloatCvt                   0      0.00%     63.68% # Class of executed instruction
system.cpu.op_class::SimdFloatDiv                   0      0.00%     63.68% # Class of executed instruction
system.cpu.op_class::SimdFloatMisc                  0      0.00%     63.68% # Class of executed instruction
system.cpu.op_class::SimdFloatMult                  0      0.00%     63.68% # Class of executed instruction
system.cpu.op_class::SimdFloatMultAcc               0      0.00%     63.68% # Class of executed instruction
system.cpu.op_class::SimdFloatSqrt                  0      0.00%     63.68% # Class of executed instruction
system.cpu.op_class::MemRead                 20997363     28.43%     92.11% # Class of executed instruction
system.cpu.op_class::MemWrite                 5824081      7.89%    100.00% # Class of executed instruction
system.cpu.op_class::FloatMemRead                 972      0.00%    100.00% # Class of executed instruction
system.cpu.op_class::FloatMemWrite                690      0.00%    100.00% # Class of executed instruction
system.cpu.op_class::IprAccess                      0      0.00%    100.00% # Class of executed instruction
system.cpu.op_class::InstPrefetch                   0      0.00%    100.00% # Class of executed instruction
system.cpu.op_class::total                   73858152                       # Class of executed instruction
system.cpu.dcache.tags.pwrStateResidencyTicks::UNDEFINED  93971891000                       # Cumulative time (in ticks) in various power states
system.cpu.dcache.tags.tagsinuse           511.433242                       # Cycle average of tags in use
system.cpu.dcache.tags.total_refs            26823115                       # Total number of references to valid blocks.
system.cpu.dcache.tags.sampled_refs             47039                       # Sample count of references to valid blocks.
system.cpu.dcache.tags.avg_refs            570.231404                       # Average number of references to valid blocks.
system.cpu.dcache.tags.warmup_cycle            765000                       # Cycle when the warmup percentage was hit.
system.cpu.dcache.tags.occ_blocks::cpu.data   511.433242                       # Average occupied blocks per requestor
system.cpu.dcache.tags.occ_percent::cpu.data     0.998893                       # Average percentage of cache occupancy
system.cpu.dcache.tags.occ_percent::total     0.998893                       # Average percentage of cache occupancy
system.cpu.dcache.tags.occ_task_id_blocks::1024          512                       # Occupied blocks per task id
system.cpu.dcache.tags.age_task_id_blocks_1024::0           18                       # Occupied blocks per task id
system.cpu.dcache.tags.age_task_id_blocks_1024::1           38                       # Occupied blocks per task id
system.cpu.dcache.tags.age_task_id_blocks_1024::2           42                       # Occupied blocks per task id
system.cpu.dcache.tags.age_task_id_blocks_1024::3          414                       # Occupied blocks per task id
system.cpu.dcache.tags.occ_task_id_percent::1024            1                       # Percentage of cache occupancy per task id
system.cpu.dcache.tags.tag_accesses          53693269                       # Number of tag accesses
system.cpu.dcache.tags.data_accesses         53693269                       # Number of data accesses
system.cpu.dcache.pwrStateResidencyTicks::UNDEFINED  93971891000                       # Cumulative time (in ticks) in various power states
system.cpu.dcache.ReadReq_hits::cpu.data     20958406                       # number of ReadReq hits
system.cpu.dcache.ReadReq_hits::total        20958406                       # number of ReadReq hits
system.cpu.dcache.WriteReq_hits::cpu.data      5814446                       # number of WriteReq hits
system.cpu.dcache.WriteReq_hits::total        5814446                       # number of WriteReq hits
system.cpu.dcache.demand_hits::cpu.data      26772852                       # number of demand (read+write) hits
system.cpu.dcache.demand_hits::total         26772852                       # number of demand (read+write) hits
system.cpu.dcache.overall_hits::cpu.data     26772852                       # number of overall hits
system.cpu.dcache.overall_hits::total        26772852                       # number of overall hits
system.cpu.dcache.ReadReq_misses::cpu.data        39938                       # number of ReadReq misses
system.cpu.dcache.ReadReq_misses::total         39938                       # number of ReadReq misses
system.cpu.dcache.WriteReq_misses::cpu.data        10325                       # number of WriteReq misses
system.cpu.dcache.WriteReq_misses::total        10325                       # number of WriteReq misses
system.cpu.dcache.demand_misses::cpu.data        50263                       # number of demand (read+write) misses
system.cpu.dcache.demand_misses::total          50263                       # number of demand (read+write) misses
system.cpu.dcache.overall_misses::cpu.data        50263                       # number of overall misses
system.cpu.dcache.overall_misses::total         50263                       # number of overall misses
system.cpu.dcache.ReadReq_miss_latency::cpu.data   5967332500                       # number of ReadReq miss cycles
system.cpu.dcache.ReadReq_miss_latency::total   5967332500                       # number of ReadReq miss cycles
system.cpu.dcache.WriteReq_miss_latency::cpu.data   1669560000                       # number of WriteReq miss cycles
system.cpu.dcache.WriteReq_miss_latency::total   1669560000                       # number of WriteReq miss cycles
system.cpu.dcache.demand_miss_latency::cpu.data   7636892500                       # number of demand (read+write) miss cycles
system.cpu.dcache.demand_miss_latency::total   7636892500                       # number of demand (read+write) miss cycles
system.cpu.dcache.overall_miss_latency::cpu.data   7636892500                       # number of overall miss cycles
system.cpu.dcache.overall_miss_latency::total   7636892500                       # number of overall miss cycles
system.cpu.dcache.ReadReq_accesses::cpu.data     20998344                       # number of ReadReq accesses(hits+misses)
system.cpu.dcache.ReadReq_accesses::total     20998344                       # number of ReadReq accesses(hits+misses)
system.cpu.dcache.WriteReq_accesses::cpu.data      5824771                       # number of WriteReq accesses(hits+misses)
system.cpu.dcache.WriteReq_accesses::total      5824771                       # number of WriteReq accesses(hits+misses)
system.cpu.dcache.demand_accesses::cpu.data     26823115                       # number of demand (read+write) accesses
system.cpu.dcache.demand_accesses::total     26823115                       # number of demand (read+write) accesses
system.cpu.dcache.overall_accesses::cpu.data     26823115                       # number of overall (read+write) accesses
system.cpu.dcache.overall_accesses::total     26823115                       # number of overall (read+write) accesses
system.cpu.dcache.ReadReq_miss_rate::cpu.data     0.001902                       # miss rate for ReadReq accesses
system.cpu.dcache.ReadReq_miss_rate::total     0.001902                       # miss rate for ReadReq accesses
system.cpu.dcache.WriteReq_miss_rate::cpu.data     0.001773                       # miss rate for WriteReq accesses
system.cpu.dcache.WriteReq_miss_rate::total     0.001773                       # miss rate for WriteReq accesses
system.cpu.dcache.demand_miss_rate::cpu.data     0.001874                       # miss rate for demand accesses
system.cpu.dcache.demand_miss_rate::total     0.001874                       # miss rate for demand accesses
system.cpu.dcache.overall_miss_rate::cpu.data     0.001874                       # miss rate for overall accesses
system.cpu.dcache.overall_miss_rate::total     0.001874                       # miss rate for overall accesses
system.cpu.dcache.ReadReq_avg_miss_latency::cpu.data 149414.905604                       # average ReadReq miss latency
system.cpu.dcache.ReadReq_avg_miss_latency::total 149414.905604                       # average ReadReq miss latency
system.cpu.dcache.WriteReq_avg_miss_latency::cpu.data 161700.726392                       # average WriteReq miss latency
system.cpu.dcache.WriteReq_avg_miss_latency::total 161700.726392                       # average WriteReq miss latency
system.cpu.dcache.demand_avg_miss_latency::cpu.data 151938.652687                       # average overall miss latency
system.cpu.dcache.demand_avg_miss_latency::total 151938.652687                       # average overall miss latency
system.cpu.dcache.overall_avg_miss_latency::cpu.data 151938.652687                       # average overall miss latency
system.cpu.dcache.overall_avg_miss_latency::total 151938.652687                       # average overall miss latency
system.cpu.dcache.blocked_cycles::no_mshrs            0                       # number of cycles access was blocked
system.cpu.dcache.blocked_cycles::no_targets            0                       # number of cycles access was blocked
system.cpu.dcache.blocked::no_mshrs                 0                       # number of cycles access was blocked
system.cpu.dcache.blocked::no_targets               0                       # number of cycles access was blocked
system.cpu.dcache.avg_blocked_cycles::no_mshrs          nan                       # average number of cycles each access was blocked
system.cpu.dcache.avg_blocked_cycles::no_targets          nan                       # average number of cycles each access was blocked
system.cpu.dcache.writebacks::writebacks        43973                       # number of writebacks
system.cpu.dcache.writebacks::total             43973                       # number of writebacks
system.cpu.dcache.ReadReq_mshr_misses::cpu.data        39938                       # number of ReadReq MSHR misses
system.cpu.dcache.ReadReq_mshr_misses::total        39938                       # number of ReadReq MSHR misses
system.cpu.dcache.WriteReq_mshr_misses::cpu.data        10325                       # number of WriteReq MSHR misses
system.cpu.dcache.WriteReq_mshr_misses::total        10325                       # number of WriteReq MSHR misses
system.cpu.dcache.demand_mshr_misses::cpu.data        50263                       # number of demand (read+write) MSHR misses
system.cpu.dcache.demand_mshr_misses::total        50263                       # number of demand (read+write) MSHR misses
system.cpu.dcache.overall_mshr_misses::cpu.data        50263                       # number of overall MSHR misses
system.cpu.dcache.overall_mshr_misses::total        50263                       # number of overall MSHR misses
system.cpu.dcache.ReadReq_mshr_miss_latency::cpu.data   5927394500                       # number of ReadReq MSHR miss cycles
system.cpu.dcache.ReadReq_mshr_miss_latency::total   5927394500                       # number of ReadReq MSHR miss cycles
system.cpu.dcache.WriteReq_mshr_miss_latency::cpu.data   1659235000                       # number of WriteReq MSHR miss cycles
system.cpu.dcache.WriteReq_mshr_miss_latency::total   1659235000                       # number of WriteReq MSHR miss cycles
system.cpu.dcache.demand_mshr_miss_latency::cpu.data   7586629500                       # number of demand (read+write) MSHR miss cycles
system.cpu.dcache.demand_mshr_miss_latency::total   7586629500                       # number of demand (read+write) MSHR miss cycles
system.cpu.dcache.overall_mshr_miss_latency::cpu.data   7586629500                       # number of overall MSHR miss cycles
system.cpu.dcache.overall_mshr_miss_latency::total   7586629500                       # number of overall MSHR miss cycles
system.cpu.dcache.ReadReq_mshr_miss_rate::cpu.data     0.001902                       # mshr miss rate for ReadReq accesses
system.cpu.dcache.ReadReq_mshr_miss_rate::total     0.001902                       # mshr miss rate for ReadReq accesses
system.cpu.dcache.WriteReq_mshr_miss_rate::cpu.data     0.001773                       # mshr miss rate for WriteReq accesses
system.cpu.dcache.WriteReq_mshr_miss_rate::total     0.001773                       # mshr miss rate for WriteReq accesses
system.cpu.dcache.demand_mshr_miss_rate::cpu.data     0.001874                       # mshr miss rate for demand accesses
system.cpu.dcache.demand_mshr_miss_rate::total     0.001874                       # mshr miss rate for demand accesses
system.cpu.dcache.overall_mshr_miss_rate::cpu.data     0.001874                       # mshr miss rate for overall accesses
system.cpu.dcache.overall_mshr_miss_rate::total     0.001874                       # mshr miss rate for overall accesses
system.cpu.dcache.ReadReq_avg_mshr_miss_latency::cpu.data 148414.905604                       # average ReadReq mshr miss latency
system.cpu.dcache.ReadReq_avg_mshr_miss_latency::total 148414.905604                       # average ReadReq mshr miss latency
system.cpu.dcache.WriteReq_avg_mshr_miss_latency::cpu.data 160700.726392                       # average WriteReq mshr miss latency
system.cpu.dcache.WriteReq_avg_mshr_miss_latency::total 160700.726392                       # average WriteReq mshr miss latency
system.cpu.dcache.demand_avg_mshr_miss_latency::cpu.data 150938.652687                       # average overall mshr miss latency
system.cpu.dcache.demand_avg_mshr_miss_latency::total 150938.652687                       # average overall mshr miss latency
system.cpu.dcache.overall_avg_mshr_miss_latency::cpu.data 150938.652687                       # average overall mshr miss latency
system.cpu.dcache.overall_avg_mshr_miss_latency::total 150938.652687                       # average overall mshr miss latency
system.cpu.dcache.replacements                  46527                       # number of replacements
system.cpu.dtb_walker_cache.tags.pwrStateResidencyTicks::UNDEFINED  93971891000                       # Cumulative time (in ticks) in various power states
system.cpu.dtb_walker_cache.tags.tagsinuse            0                       # Cycle average of tags in use
system.cpu.dtb_walker_cache.tags.total_refs            0                       # Total number of references to valid blocks.
system.cpu.dtb_walker_cache.tags.sampled_refs            0                       # Sample count of references to valid blocks.
system.cpu.dtb_walker_cache.tags.avg_refs          nan                       # Average number of references to valid blocks.
system.cpu.dtb_walker_cache.tags.warmup_cycle            0                       # Cycle when the warmup percentage was hit.
system.cpu.dtb_walker_cache.tags.tag_accesses            0                       # Number of tag accesses
system.cpu.dtb_walker_cache.tags.data_accesses            0                       # Number of data accesses
system.cpu.dtb_walker_cache.pwrStateResidencyTicks::UNDEFINED  93971891000                       # Cumulative time (in ticks) in various power states
system.cpu.dtb_walker_cache.blocked_cycles::no_mshrs            0                       # number of cycles access was blocked
system.cpu.dtb_walker_cache.blocked_cycles::no_targets            0                       # number of cycles access was blocked
system.cpu.dtb_walker_cache.blocked::no_mshrs            0                       # number of cycles access was blocked
system.cpu.dtb_walker_cache.blocked::no_targets            0                       # number of cycles access was blocked
system.cpu.dtb_walker_cache.avg_blocked_cycles::no_mshrs          nan                       # average number of cycles each access was blocked
system.cpu.dtb_walker_cache.avg_blocked_cycles::no_targets          nan                       # average number of cycles each access was blocked
system.cpu.dtb_walker_cache.replacements            0                       # number of replacements
system.cpu.icache.tags.pwrStateResidencyTicks::UNDEFINED  93971891000                       # Cumulative time (in ticks) in various power states
system.cpu.icache.tags.tagsinuse           452.004841                       # Cycle average of tags in use
system.cpu.icache.tags.total_refs            59427986                       # Total number of references to valid blocks.
system.cpu.icache.tags.sampled_refs               757                       # Sample count of references to valid blocks.
system.cpu.icache.tags.avg_refs          78504.605020                       # Average number of references to valid blocks.
system.cpu.icache.tags.warmup_cycle            445000                       # Cycle when the warmup percentage was hit.
system.cpu.icache.tags.occ_blocks::cpu.inst   452.004841                       # Average occupied blocks per requestor
system.cpu.icache.tags.occ_percent::cpu.inst     0.882822                       # Average percentage of cache occupancy
system.cpu.icache.tags.occ_percent::total     0.882822                       # Average percentage of cache occupancy
system.cpu.icache.tags.occ_task_id_blocks::1024          467                       # Occupied blocks per task id
system.cpu.icache.tags.age_task_id_blocks_1024::0           28                       # Occupied blocks per task id
system.cpu.icache.tags.age_task_id_blocks_1024::1           33                       # Occupied blocks per task id
system.cpu.icache.tags.age_task_id_blocks_1024::4          406                       # Occupied blocks per task id
system.cpu.icache.tags.occ_task_id_percent::1024     0.912109                       # Percentage of cache occupancy per task id
system.cpu.icache.tags.tag_accesses         118856729                       # Number of tag accesses
system.cpu.icache.tags.data_accesses        118856729                       # Number of data accesses
system.cpu.icache.pwrStateResidencyTicks::UNDEFINED  93971891000                       # Cumulative time (in ticks) in various power states
system.cpu.icache.ReadReq_hits::cpu.inst     59427229                       # number of ReadReq hits
system.cpu.icache.ReadReq_hits::total        59427229                       # number of ReadReq hits
system.cpu.icache.demand_hits::cpu.inst      59427229                       # number of demand (read+write) hits
system.cpu.icache.demand_hits::total         59427229                       # number of demand (read+write) hits
system.cpu.icache.overall_hits::cpu.inst     59427229                       # number of overall hits
system.cpu.icache.overall_hits::total        59427229                       # number of overall hits
system.cpu.icache.ReadReq_misses::cpu.inst          757                       # number of ReadReq misses
system.cpu.icache.ReadReq_misses::total           757                       # number of ReadReq misses
system.cpu.icache.demand_misses::cpu.inst          757                       # number of demand (read+write) misses
system.cpu.icache.demand_misses::total            757                       # number of demand (read+write) misses
system.cpu.icache.overall_misses::cpu.inst          757                       # number of overall misses
system.cpu.icache.overall_misses::total           757                       # number of overall misses
system.cpu.icache.ReadReq_miss_latency::cpu.inst    135237500                       # number of ReadReq miss cycles
system.cpu.icache.ReadReq_miss_latency::total    135237500                       # number of ReadReq miss cycles
system.cpu.icache.demand_miss_latency::cpu.inst    135237500                       # number of demand (read+write) miss cycles
system.cpu.icache.demand_miss_latency::total    135237500                       # number of demand (read+write) miss cycles
system.cpu.icache.overall_miss_latency::cpu.inst    135237500                       # number of overall miss cycles
system.cpu.icache.overall_miss_latency::total    135237500                       # number of overall miss cycles
system.cpu.icache.ReadReq_accesses::cpu.inst     59427986                       # number of ReadReq accesses(hits+misses)
system.cpu.icache.ReadReq_accesses::total     59427986                       # number of ReadReq accesses(hits+misses)
system.cpu.icache.demand_accesses::cpu.inst     59427986                       # number of demand (read+write) accesses
system.cpu.icache.demand_accesses::total     59427986                       # number of demand (read+write) accesses
system.cpu.icache.overall_accesses::cpu.inst     59427986                       # number of overall (read+write) accesses
system.cpu.icache.overall_accesses::total     59427986                       # number of overall (read+write) accesses
system.cpu.icache.ReadReq_miss_rate::cpu.inst     0.000013                       # miss rate for ReadReq accesses
system.cpu.icache.ReadReq_miss_rate::total     0.000013                       # miss rate for ReadReq accesses
system.cpu.icache.demand_miss_rate::cpu.inst     0.000013                       # miss rate for demand accesses
system.cpu.icache.demand_miss_rate::total     0.000013                       # miss rate for demand accesses
system.cpu.icache.overall_miss_rate::cpu.inst     0.000013                       # miss rate for overall accesses
system.cpu.icache.overall_miss_rate::total     0.000013                       # miss rate for overall accesses
system.cpu.icache.ReadReq_avg_miss_latency::cpu.inst 178649.273448                       # average ReadReq miss latency
system.cpu.icache.ReadReq_avg_miss_latency::total 178649.273448                       # average ReadReq miss latency
system.cpu.icache.demand_avg_miss_latency::cpu.inst 178649.273448                       # average overall miss latency
system.cpu.icache.demand_avg_miss_latency::total 178649.273448                       # average overall miss latency
system.cpu.icache.overall_avg_miss_latency::cpu.inst 178649.273448                       # average overall miss latency
system.cpu.icache.overall_avg_miss_latency::total 178649.273448                       # average overall miss latency
system.cpu.icache.blocked_cycles::no_mshrs            0                       # number of cycles access was blocked
system.cpu.icache.blocked_cycles::no_targets            0                       # number of cycles access was blocked
system.cpu.icache.blocked::no_mshrs                 0                       # number of cycles access was blocked
system.cpu.icache.blocked::no_targets               0                       # number of cycles access was blocked
system.cpu.icache.avg_blocked_cycles::no_mshrs          nan                       # average number of cycles each access was blocked
system.cpu.icache.avg_blocked_cycles::no_targets          nan                       # average number of cycles each access was blocked
system.cpu.icache.writebacks::writebacks          290                       # number of writebacks
system.cpu.icache.writebacks::total               290                       # number of writebacks
system.cpu.icache.ReadReq_mshr_misses::cpu.inst          757                       # number of ReadReq MSHR misses
system.cpu.icache.ReadReq_mshr_misses::total          757                       # number of ReadReq MSHR misses
system.cpu.icache.demand_mshr_misses::cpu.inst          757                       # number of demand (read+write) MSHR misses
system.cpu.icache.demand_mshr_misses::total          757                       # number of demand (read+write) MSHR misses
system.cpu.icache.overall_mshr_misses::cpu.inst          757                       # number of overall MSHR misses
system.cpu.icache.overall_mshr_misses::total          757                       # number of overall MSHR misses
system.cpu.icache.ReadReq_mshr_miss_latency::cpu.inst    134480500                       # number of ReadReq MSHR miss cycles
system.cpu.icache.ReadReq_mshr_miss_latency::total    134480500                       # number of ReadReq MSHR miss cycles
system.cpu.icache.demand_mshr_miss_latency::cpu.inst    134480500                       # number of demand (read+write) MSHR miss cycles
system.cpu.icache.demand_mshr_miss_latency::total    134480500                       # number of demand (read+write) MSHR miss cycles
system.cpu.icache.overall_mshr_miss_latency::cpu.inst    134480500                       # number of overall MSHR miss cycles
system.cpu.icache.overall_mshr_miss_latency::total    134480500                       # number of overall MSHR miss cycles
system.cpu.icache.ReadReq_mshr_miss_rate::cpu.inst     0.000013                       # mshr miss rate for ReadReq accesses
system.cpu.icache.ReadReq_mshr_miss_rate::total     0.000013                       # mshr miss rate for ReadReq accesses
system.cpu.icache.demand_mshr_miss_rate::cpu.inst     0.000013                       # mshr miss rate for demand accesses
system.cpu.icache.demand_mshr_miss_rate::total     0.000013                       # mshr miss rate for demand accesses
system.cpu.icache.overall_mshr_miss_rate::cpu.inst     0.000013                       # mshr miss rate for overall accesses
system.cpu.icache.overall_mshr_miss_rate::total     0.000013                       # mshr miss rate for overall accesses
system.cpu.icache.ReadReq_avg_mshr_miss_latency::cpu.inst 177649.273448                       # average ReadReq mshr miss latency
system.cpu.icache.ReadReq_avg_mshr_miss_latency::total 177649.273448                       # average ReadReq mshr miss latency
system.cpu.icache.demand_avg_mshr_miss_latency::cpu.inst 177649.273448                       # average overall mshr miss latency
system.cpu.icache.demand_avg_mshr_miss_latency::total 177649.273448                       # average overall mshr miss latency
system.cpu.icache.overall_avg_mshr_miss_latency::cpu.inst 177649.273448                       # average overall mshr miss latency
system.cpu.icache.overall_avg_mshr_miss_latency::total 177649.273448                       # average overall mshr miss latency
system.cpu.icache.replacements                    290                       # number of replacements
system.cpu.itb_walker_cache.tags.pwrStateResidencyTicks::UNDEFINED  93971891000                       # Cumulative time (in ticks) in various power states
system.cpu.itb_walker_cache.tags.tagsinuse            0                       # Cycle average of tags in use
system.cpu.itb_walker_cache.tags.total_refs            0                       # Total number of references to valid blocks.
system.cpu.itb_walker_cache.tags.sampled_refs            0                       # Sample count of references to valid blocks.
system.cpu.itb_walker_cache.tags.avg_refs          nan                       # Average number of references to valid blocks.
system.cpu.itb_walker_cache.tags.warmup_cycle            0                       # Cycle when the warmup percentage was hit.
system.cpu.itb_walker_cache.tags.tag_accesses            0                       # Number of tag accesses
system.cpu.itb_walker_cache.tags.data_accesses            0                       # Number of data accesses
system.cpu.itb_walker_cache.pwrStateResidencyTicks::UNDEFINED  93971891000                       # Cumulative time (in ticks) in various power states
system.cpu.itb_walker_cache.blocked_cycles::no_mshrs            0                       # number of cycles access was blocked
system.cpu.itb_walker_cache.blocked_cycles::no_targets            0                       # number of cycles access was blocked
system.cpu.itb_walker_cache.blocked::no_mshrs            0                       # number of cycles access was blocked
system.cpu.itb_walker_cache.blocked::no_targets            0                       # number of cycles access was blocked
system.cpu.itb_walker_cache.avg_blocked_cycles::no_mshrs          nan                       # average number of cycles each access was blocked
system.cpu.itb_walker_cache.avg_blocked_cycles::no_targets          nan                       # average number of cycles each access was blocked
system.cpu.itb_walker_cache.replacements            0                       # number of replacements
system.l2.tags.pwrStateResidencyTicks::UNDEFINED  93971891000                       # Cumulative time (in ticks) in various power states
system.l2.tags.tagsinuse                  2043.384294                       # Cycle average of tags in use
system.l2.tags.total_refs                       97814                       # Total number of references to valid blocks.
system.l2.tags.sampled_refs                     26105                       # Sample count of references to valid blocks.
system.l2.tags.avg_refs                      3.746945                       # Average number of references to valid blocks.
system.l2.tags.warmup_cycle                    434500                       # Cycle when the warmup percentage was hit.
system.l2.tags.occ_blocks::writebacks        3.784146                       # Average occupied blocks per requestor
system.l2.tags.occ_blocks::cpu.inst          9.446405                       # Average occupied blocks per requestor
system.l2.tags.occ_blocks::cpu.data       2030.153742                       # Average occupied blocks per requestor
system.l2.tags.occ_percent::writebacks       0.001848                       # Average percentage of cache occupancy
system.l2.tags.occ_percent::cpu.inst         0.004613                       # Average percentage of cache occupancy
system.l2.tags.occ_percent::cpu.data         0.991286                       # Average percentage of cache occupancy
system.l2.tags.occ_percent::total            0.997746                       # Average percentage of cache occupancy
system.l2.tags.occ_task_id_blocks::1024          2048                       # Occupied blocks per task id
system.l2.tags.age_task_id_blocks_1024::0           67                       # Occupied blocks per task id
system.l2.tags.age_task_id_blocks_1024::1           96                       # Occupied blocks per task id
system.l2.tags.age_task_id_blocks_1024::2           34                       # Occupied blocks per task id
system.l2.tags.age_task_id_blocks_1024::3           62                       # Occupied blocks per task id
system.l2.tags.age_task_id_blocks_1024::4         1789                       # Occupied blocks per task id
system.l2.tags.occ_task_id_percent::1024            1                       # Percentage of cache occupancy per task id
system.l2.tags.tag_accesses                    808793                       # Number of tag accesses
system.l2.tags.data_accesses                   808793                       # Number of data accesses
system.l2.pwrStateResidencyTicks::UNDEFINED  93971891000                       # Cumulative time (in ticks) in various power states
system.l2.WritebackDirty_hits::writebacks        43973                       # number of WritebackDirty hits
system.l2.WritebackDirty_hits::total            43973                       # number of WritebackDirty hits
system.l2.WritebackClean_hits::writebacks          290                       # number of WritebackClean hits
system.l2.WritebackClean_hits::total              290                       # number of WritebackClean hits
system.l2.UpgradeReq_hits::cpu.data              3224                       # number of UpgradeReq hits
system.l2.UpgradeReq_hits::total                 3224                       # number of UpgradeReq hits
system.l2.ReadExReq_hits::cpu.data                284                       # number of ReadExReq hits
system.l2.ReadExReq_hits::total                   284                       # number of ReadExReq hits
system.l2.ReadCleanReq_hits::cpu.inst              19                       # number of ReadCleanReq hits
system.l2.ReadCleanReq_hits::total                 19                       # number of ReadCleanReq hits
system.l2.ReadSharedReq_hits::cpu.data          21544                       # number of ReadSharedReq hits
system.l2.ReadSharedReq_hits::total             21544                       # number of ReadSharedReq hits
system.l2.demand_hits::cpu.inst                    19                       # number of demand (read+write) hits
system.l2.demand_hits::cpu.data                 21828                       # number of demand (read+write) hits
system.l2.demand_hits::total                    21847                       # number of demand (read+write) hits
system.l2.overall_hits::cpu.inst                   19                       # number of overall hits
system.l2.overall_hits::cpu.data                21828                       # number of overall hits
system.l2.overall_hits::total                   21847                       # number of overall hits
system.l2.ReadExReq_misses::cpu.data             6817                       # number of ReadExReq misses
system.l2.ReadExReq_misses::total                6817                       # number of ReadExReq misses
system.l2.ReadCleanReq_misses::cpu.inst           738                       # number of ReadCleanReq misses
system.l2.ReadCleanReq_misses::total              738                       # number of ReadCleanReq misses
system.l2.ReadSharedReq_misses::cpu.data        18394                       # number of ReadSharedReq misses
system.l2.ReadSharedReq_misses::total           18394                       # number of ReadSharedReq misses
system.l2.demand_misses::cpu.inst                 738                       # number of demand (read+write) misses
system.l2.demand_misses::cpu.data               25211                       # number of demand (read+write) misses
system.l2.demand_misses::total                  25949                       # number of demand (read+write) misses
system.l2.overall_misses::cpu.inst                738                       # number of overall misses
system.l2.overall_misses::cpu.data              25211                       # number of overall misses
system.l2.overall_misses::total                 25949                       # number of overall misses
system.l2.ReadExReq_miss_latency::cpu.data   1606911000                       # number of ReadExReq miss cycles
system.l2.ReadExReq_miss_latency::total    1606911000                       # number of ReadExReq miss cycles
system.l2.ReadCleanReq_miss_latency::cpu.inst    133141500                       # number of ReadCleanReq miss cycles
system.l2.ReadCleanReq_miss_latency::total    133141500                       # number of ReadCleanReq miss cycles
system.l2.ReadSharedReq_miss_latency::cpu.data   5641268000                       # number of ReadSharedReq miss cycles
system.l2.ReadSharedReq_miss_latency::total   5641268000                       # number of ReadSharedReq miss cycles
system.l2.demand_miss_latency::cpu.inst     133141500                       # number of demand (read+write) miss cycles
system.l2.demand_miss_latency::cpu.data    7248179000                       # number of demand (read+write) miss cycles
system.l2.demand_miss_latency::total       7381320500                       # number of demand (read+write) miss cycles
system.l2.overall_miss_latency::cpu.inst    133141500                       # number of overall miss cycles
system.l2.overall_miss_latency::cpu.data   7248179000                       # number of overall miss cycles
system.l2.overall_miss_latency::total      7381320500                       # number of overall miss cycles
system.l2.WritebackDirty_accesses::writebacks        43973                       # number of WritebackDirty accesses(hits+misses)
system.l2.WritebackDirty_accesses::total        43973                       # number of WritebackDirty accesses(hits+misses)
system.l2.WritebackClean_accesses::writebacks          290                       # number of WritebackClean accesses(hits+misses)
system.l2.WritebackClean_accesses::total          290                       # number of WritebackClean accesses(hits+misses)
system.l2.UpgradeReq_accesses::cpu.data          3224                       # number of UpgradeReq accesses(hits+misses)
system.l2.UpgradeReq_accesses::total             3224                       # number of UpgradeReq accesses(hits+misses)
system.l2.ReadExReq_accesses::cpu.data           7101                       # number of ReadExReq accesses(hits+misses)
system.l2.ReadExReq_accesses::total              7101                       # number of ReadExReq accesses(hits+misses)
system.l2.ReadCleanReq_accesses::cpu.inst          757                       # number of ReadCleanReq accesses(hits+misses)
system.l2.ReadCleanReq_accesses::total            757                       # number of ReadCleanReq accesses(hits+misses)
system.l2.ReadSharedReq_accesses::cpu.data        39938                       # number of ReadSharedReq accesses(hits+misses)
system.l2.ReadSharedReq_accesses::total         39938                       # number of ReadSharedReq accesses(hits+misses)
system.l2.demand_accesses::cpu.inst               757                       # number of demand (read+write) accesses
system.l2.demand_accesses::cpu.data             47039                       # number of demand (read+write) accesses
system.l2.demand_accesses::total                47796                       # number of demand (read+write) accesses
system.l2.overall_accesses::cpu.inst              757                       # number of overall (read+write) accesses
system.l2.overall_accesses::cpu.data            47039                       # number of overall (read+write) accesses
system.l2.overall_accesses::total               47796                       # number of overall (read+write) accesses
system.l2.ReadExReq_miss_rate::cpu.data      0.960006                       # miss rate for ReadExReq accesses
system.l2.ReadExReq_miss_rate::total         0.960006                       # miss rate for ReadExReq accesses
system.l2.ReadCleanReq_miss_rate::cpu.inst     0.974901                       # miss rate for ReadCleanReq accesses
system.l2.ReadCleanReq_miss_rate::total      0.974901                       # miss rate for ReadCleanReq accesses
system.l2.ReadSharedReq_miss_rate::cpu.data     0.460564                       # miss rate for ReadSharedReq accesses
system.l2.ReadSharedReq_miss_rate::total     0.460564                       # miss rate for ReadSharedReq accesses
system.l2.demand_miss_rate::cpu.inst         0.974901                       # miss rate for demand accesses
system.l2.demand_miss_rate::cpu.data         0.535960                       # miss rate for demand accesses
system.l2.demand_miss_rate::total            0.542912                       # miss rate for demand accesses
system.l2.overall_miss_rate::cpu.inst        0.974901                       # miss rate for overall accesses
system.l2.overall_miss_rate::cpu.data        0.535960                       # miss rate for overall accesses
system.l2.overall_miss_rate::total           0.542912                       # miss rate for overall accesses
system.l2.ReadExReq_avg_miss_latency::cpu.data 235721.138331                       # average ReadExReq miss latency
system.l2.ReadExReq_avg_miss_latency::total 235721.138331                       # average ReadExReq miss latency
system.l2.ReadCleanReq_avg_miss_latency::cpu.inst 180408.536585                       # average ReadCleanReq miss latency
system.l2.ReadCleanReq_avg_miss_latency::total 180408.536585                       # average ReadCleanReq miss latency
system.l2.ReadSharedReq_avg_miss_latency::cpu.data 306690.659998                       # average ReadSharedReq miss latency
system.l2.ReadSharedReq_avg_miss_latency::total 306690.659998                       # average ReadSharedReq miss latency
system.l2.demand_avg_miss_latency::cpu.inst 180408.536585                       # average overall miss latency
system.l2.demand_avg_miss_latency::cpu.data 287500.654476                       # average overall miss latency
system.l2.demand_avg_miss_latency::total 284454.911557                       # average overall miss latency
system.l2.overall_avg_miss_latency::cpu.inst 180408.536585                       # average overall miss latency
system.l2.overall_avg_miss_latency::cpu.data 287500.654476                       # average overall miss latency
system.l2.overall_avg_miss_latency::total 284454.911557                       # average overall miss latency
system.l2.blocked_cycles::no_mshrs                  0                       # number of cycles access was blocked
system.l2.blocked_cycles::no_targets                0                       # number of cycles access was blocked
system.l2.blocked::no_mshrs                         0                       # number of cycles access was blocked
system.l2.blocked::no_targets                       0                       # number of cycles access was blocked
system.l2.avg_blocked_cycles::no_mshrs            nan                       # average number of cycles each access was blocked
system.l2.avg_blocked_cycles::no_targets          nan                       # average number of cycles each access was blocked
system.l2.writebacks::writebacks                21960                       # number of writebacks
system.l2.writebacks::total                     21960                       # number of writebacks
system.l2.CleanEvict_mshr_misses::writebacks           22                       # number of CleanEvict MSHR misses
system.l2.CleanEvict_mshr_misses::total            22                       # number of CleanEvict MSHR misses
system.l2.ReadExReq_mshr_misses::cpu.data         6817                       # number of ReadExReq MSHR misses
system.l2.ReadExReq_mshr_misses::total           6817                       # number of ReadExReq MSHR misses
system.l2.ReadCleanReq_mshr_misses::cpu.inst          738                       # number of ReadCleanReq MSHR misses
system.l2.ReadCleanReq_mshr_misses::total          738                       # number of ReadCleanReq MSHR misses
system.l2.ReadSharedReq_mshr_misses::cpu.data        18394                       # number of ReadSharedReq MSHR misses
system.l2.ReadSharedReq_mshr_misses::total        18394                       # number of ReadSharedReq MSHR misses
system.l2.demand_mshr_misses::cpu.inst            738                       # number of demand (read+write) MSHR misses
system.l2.demand_mshr_misses::cpu.data          25211                       # number of demand (read+write) MSHR misses
system.l2.demand_mshr_misses::total             25949                       # number of demand (read+write) MSHR misses
system.l2.overall_mshr_misses::cpu.inst           738                       # number of overall MSHR misses
system.l2.overall_mshr_misses::cpu.data         25211                       # number of overall MSHR misses
system.l2.overall_mshr_misses::total            25949                       # number of overall MSHR misses
system.l2.ReadExReq_mshr_miss_latency::cpu.data   1538741000                       # number of ReadExReq MSHR miss cycles
system.l2.ReadExReq_mshr_miss_latency::total   1538741000                       # number of ReadExReq MSHR miss cycles
system.l2.ReadCleanReq_mshr_miss_latency::cpu.inst    125761500                       # number of ReadCleanReq MSHR miss cycles
system.l2.ReadCleanReq_mshr_miss_latency::total    125761500                       # number of ReadCleanReq MSHR miss cycles
system.l2.ReadSharedReq_mshr_miss_latency::cpu.data   5457328000                       # number of ReadSharedReq MSHR miss cycles
system.l2.ReadSharedReq_mshr_miss_latency::total   5457328000                       # number of ReadSharedReq MSHR miss cycles
system.l2.demand_mshr_miss_latency::cpu.inst    125761500                       # number of demand (read+write) MSHR miss cycles
system.l2.demand_mshr_miss_latency::cpu.data   6996069000                       # number of demand (read+write) MSHR miss cycles
system.l2.demand_mshr_miss_latency::total   7121830500                       # number of demand (read+write) MSHR miss cycles
system.l2.overall_mshr_miss_latency::cpu.inst    125761500                       # number of overall MSHR miss cycles
system.l2.overall_mshr_miss_latency::cpu.data   6996069000                       # number of overall MSHR miss cycles
system.l2.overall_mshr_miss_latency::total   7121830500                       # number of overall MSHR miss cycles
system.l2.CleanEvict_mshr_miss_rate::writebacks          inf                       # mshr miss rate for CleanEvict accesses
system.l2.CleanEvict_mshr_miss_rate::total          inf                       # mshr miss rate for CleanEvict accesses
system.l2.ReadExReq_mshr_miss_rate::cpu.data     0.960006                       # mshr miss rate for ReadExReq accesses
system.l2.ReadExReq_mshr_miss_rate::total     0.960006                       # mshr miss rate for ReadExReq accesses
system.l2.ReadCleanReq_mshr_miss_rate::cpu.inst     0.974901                       # mshr miss rate for ReadCleanReq accesses
system.l2.ReadCleanReq_mshr_miss_rate::total     0.974901                       # mshr miss rate for ReadCleanReq accesses
system.l2.ReadSharedReq_mshr_miss_rate::cpu.data     0.460564                       # mshr miss rate for ReadSharedReq accesses
system.l2.ReadSharedReq_mshr_miss_rate::total     0.460564                       # mshr miss rate for ReadSharedReq accesses
system.l2.demand_mshr_miss_rate::cpu.inst     0.974901                       # mshr miss rate for demand accesses
system.l2.demand_mshr_miss_rate::cpu.data     0.535960                       # mshr miss rate for demand accesses
system.l2.demand_mshr_miss_rate::total       0.542912                       # mshr miss rate for demand accesses
system.l2.overall_mshr_miss_rate::cpu.inst     0.974901                       # mshr miss rate for overall accesses
system.l2.overall_mshr_miss_rate::cpu.data     0.535960                       # mshr miss rate for overall accesses
system.l2.overall_mshr_miss_rate::total      0.542912                       # mshr miss rate for overall accesses
system.l2.ReadExReq_avg_mshr_miss_latency::cpu.data 225721.138331                       # average ReadExReq mshr miss latency
system.l2.ReadExReq_avg_mshr_miss_latency::total 225721.138331                       # average ReadExReq mshr miss latency
system.l2.ReadCleanReq_avg_mshr_miss_latency::cpu.inst 170408.536585                       # average ReadCleanReq mshr miss latency
system.l2.ReadCleanReq_avg_mshr_miss_latency::total 170408.536585                       # average ReadCleanReq mshr miss latency
system.l2.ReadSharedReq_avg_mshr_miss_latency::cpu.data 296690.659998                       # average ReadSharedReq mshr miss latency
system.l2.ReadSharedReq_avg_mshr_miss_latency::total 296690.659998                       # average ReadSharedReq mshr miss latency
system.l2.demand_avg_mshr_miss_latency::cpu.inst 170408.536585                       # average overall mshr miss latency
system.l2.demand_avg_mshr_miss_latency::cpu.data 277500.654476                       # average overall mshr miss latency
system.l2.demand_avg_mshr_miss_latency::total 274454.911557                       # average overall mshr miss latency
system.l2.overall_avg_mshr_miss_latency::cpu.inst 170408.536585                       # average overall mshr miss latency
system.l2.overall_avg_mshr_miss_latency::cpu.data 277500.654476                       # average overall mshr miss latency
system.l2.overall_avg_mshr_miss_latency::total 274454.911557                       # average overall mshr miss latency
system.l2.replacements                          24057                       # number of replacements
system.l3.tags.pwrStateResidencyTicks::UNDEFINED  93971891000                       # Cumulative time (in ticks) in various power states
system.l3.tags.tagsinuse                  2039.204527                       # Cycle average of tags in use
system.l3.tags.total_refs                       48452                       # Total number of references to valid blocks.
system.l3.tags.sampled_refs                     41805                       # Sample count of references to valid blocks.
system.l3.tags.avg_refs                      1.159000                       # Average number of references to valid blocks.
system.l3.tags.warmup_cycle                    418000                       # Cycle when the warmup percentage was hit.
system.l3.tags.occ_blocks::writebacks      884.295927                       # Average occupied blocks per requestor
system.l3.tags.occ_blocks::cpu.inst         57.880848                       # Average occupied blocks per requestor
system.l3.tags.occ_blocks::cpu.data       1097.027753                       # Average occupied blocks per requestor
system.l3.tags.occ_percent::writebacks       0.431785                       # Average percentage of cache occupancy
system.l3.tags.occ_percent::cpu.inst         0.028262                       # Average percentage of cache occupancy
system.l3.tags.occ_percent::cpu.data         0.535658                       # Average percentage of cache occupancy
system.l3.tags.occ_percent::total            0.995705                       # Average percentage of cache occupancy
system.l3.tags.occ_task_id_blocks::1024          2048                       # Occupied blocks per task id
system.l3.tags.age_task_id_blocks_1024::0           56                       # Occupied blocks per task id
system.l3.tags.age_task_id_blocks_1024::1           74                       # Occupied blocks per task id
system.l3.tags.age_task_id_blocks_1024::2           13                       # Occupied blocks per task id
system.l3.tags.age_task_id_blocks_1024::3           16                       # Occupied blocks per task id
system.l3.tags.age_task_id_blocks_1024::4         1889                       # Occupied blocks per task id
system.l3.tags.occ_task_id_percent::1024            1                       # Percentage of cache occupancy per task id
system.l3.tags.tag_accesses                    140693                       # Number of tag accesses
system.l3.tags.data_accesses                   140693                       # Number of data accesses
system.l3.pwrStateResidencyTicks::UNDEFINED  93971891000                       # Cumulative time (in ticks) in various power states
system.l3.WritebackDirty_hits::writebacks        21960                       # number of WritebackDirty hits
system.l3.WritebackDirty_hits::total            21960                       # number of WritebackDirty hits
system.l3.ReadExReq_hits::cpu.data                 35                       # number of ReadExReq hits
system.l3.ReadExReq_hits::total                    35                       # number of ReadExReq hits
system.l3.ReadSharedReq_hits::cpu.data           3835                       # number of ReadSharedReq hits
system.l3.ReadSharedReq_hits::total              3835                       # number of ReadSharedReq hits
system.l3.demand_hits::cpu.data                  3870                       # number of demand (read+write) hits
system.l3.demand_hits::total                     3870                       # number of demand (read+write) hits
system.l3.overall_hits::cpu.data                 3870                       # number of overall hits
system.l3.overall_hits::total                    3870                       # number of overall hits
system.l3.ReadExReq_misses::cpu.data             6782                       # number of ReadExReq misses
system.l3.ReadExReq_misses::total                6782                       # number of ReadExReq misses
system.l3.ReadSharedReq_misses::cpu.inst          738                       # number of ReadSharedReq misses
system.l3.ReadSharedReq_misses::cpu.data        14559                       # number of ReadSharedReq misses
system.l3.ReadSharedReq_misses::total           15297                       # number of ReadSharedReq misses
system.l3.demand_misses::cpu.inst                 738                       # number of demand (read+write) misses
system.l3.demand_misses::cpu.data               21341                       # number of demand (read+write) misses
system.l3.demand_misses::total                  22079                       # number of demand (read+write) misses
system.l3.overall_misses::cpu.inst                738                       # number of overall misses
system.l3.overall_misses::cpu.data              21341                       # number of overall misses
system.l3.overall_misses::total                 22079                       # number of overall misses
system.l3.ReadExReq_miss_latency::cpu.data   1463176500                       # number of ReadExReq miss cycles
system.l3.ReadExReq_miss_latency::total    1463176500                       # number of ReadExReq miss cycles
system.l3.ReadSharedReq_miss_latency::cpu.inst    117643500                       # number of ReadSharedReq miss cycles
system.l3.ReadSharedReq_miss_latency::cpu.data   5191716500                       # number of ReadSharedReq miss cycles
system.l3.ReadSharedReq_miss_latency::total   5309360000                       # number of ReadSharedReq miss cycles
system.l3.demand_miss_latency::cpu.inst     117643500                       # number of demand (read+write) miss cycles
system.l3.demand_miss_latency::cpu.data    6654893000                       # number of demand (read+write) miss cycles
system.l3.demand_miss_latency::total       6772536500                       # number of demand (read+write) miss cycles
system.l3.overall_miss_latency::cpu.inst    117643500                       # number of overall miss cycles
system.l3.overall_miss_latency::cpu.data   6654893000                       # number of overall miss cycles
system.l3.overall_miss_latency::total      6772536500                       # number of overall miss cycles
system.l3.WritebackDirty_accesses::writebacks        21960                       # number of WritebackDirty accesses(hits+misses)
system.l3.WritebackDirty_accesses::total        21960                       # number of WritebackDirty accesses(hits+misses)
system.l3.ReadExReq_accesses::cpu.data           6817                       # number of ReadExReq accesses(hits+misses)
system.l3.ReadExReq_accesses::total              6817                       # number of ReadExReq accesses(hits+misses)
system.l3.ReadSharedReq_accesses::cpu.inst          738                       # number of ReadSharedReq accesses(hits+misses)
system.l3.ReadSharedReq_accesses::cpu.data        18394                       # number of ReadSharedReq accesses(hits+misses)
system.l3.ReadSharedReq_accesses::total         19132                       # number of ReadSharedReq accesses(hits+misses)
system.l3.demand_accesses::cpu.inst               738                       # number of demand (read+write) accesses
system.l3.demand_accesses::cpu.data             25211                       # number of demand (read+write) accesses
system.l3.demand_accesses::total                25949                       # number of demand (read+write) accesses
system.l3.overall_accesses::cpu.inst              738                       # number of overall (read+write) accesses
system.l3.overall_accesses::cpu.data            25211                       # number of overall (read+write) accesses
system.l3.overall_accesses::total               25949                       # number of overall (read+write) accesses
system.l3.ReadExReq_miss_rate::cpu.data      0.994866                       # miss rate for ReadExReq accesses
system.l3.ReadExReq_miss_rate::total         0.994866                       # miss rate for ReadExReq accesses
system.l3.ReadSharedReq_miss_rate::cpu.inst            1                       # miss rate for ReadSharedReq accesses
system.l3.ReadSharedReq_miss_rate::cpu.data     0.791508                       # miss rate for ReadSharedReq accesses
system.l3.ReadSharedReq_miss_rate::total     0.799550                       # miss rate for ReadSharedReq accesses
system.l3.demand_miss_rate::cpu.inst                1                       # miss rate for demand accesses
system.l3.demand_miss_rate::cpu.data         0.846496                       # miss rate for demand accesses
system.l3.demand_miss_rate::total            0.850861                       # miss rate for demand accesses
system.l3.overall_miss_rate::cpu.inst               1                       # miss rate for overall accesses
system.l3.overall_miss_rate::cpu.data        0.846496                       # miss rate for overall accesses
system.l3.overall_miss_rate::total           0.850861                       # miss rate for overall accesses
system.l3.ReadExReq_avg_miss_latency::cpu.data 215744.102035                       # average ReadExReq miss latency
system.l3.ReadExReq_avg_miss_latency::total 215744.102035                       # average ReadExReq miss latency
system.l3.ReadSharedReq_avg_miss_latency::cpu.inst 159408.536585                       # average ReadSharedReq miss latency
system.l3.ReadSharedReq_avg_miss_latency::cpu.data 356598.427090                       # average ReadSharedReq miss latency
system.l3.ReadSharedReq_avg_miss_latency::total 347085.049356                       # average ReadSharedReq miss latency
system.l3.demand_avg_miss_latency::cpu.inst 159408.536585                       # average overall miss latency
system.l3.demand_avg_miss_latency::cpu.data 311836.043297                       # average overall miss latency
system.l3.demand_avg_miss_latency::total 306741.088817                       # average overall miss latency
system.l3.overall_avg_miss_latency::cpu.inst 159408.536585                       # average overall miss latency
system.l3.overall_avg_miss_latency::cpu.data 311836.043297                       # average overall miss latency
system.l3.overall_avg_miss_latency::total 306741.088817                       # average overall miss latency
system.l3.blocked_cycles::no_mshrs                  0                       # number of cycles access was blocked
system.l3.blocked_cycles::no_targets                0                       # number of cycles access was blocked
system.l3.blocked::no_mshrs                         0                       # number of cycles access was blocked
system.l3.blocked::no_targets                       0                       # number of cycles access was blocked
system.l3.avg_blocked_cycles::no_mshrs            nan                       # average number of cycles each access was blocked
system.l3.avg_blocked_cycles::no_targets          nan                       # average number of cycles each access was blocked
system.l3.writebacks::writebacks                16863                       # number of writebacks
system.l3.writebacks::total                     16863                       # number of writebacks
system.l3.CleanEvict_mshr_misses::writebacks          992                       # number of CleanEvict MSHR misses
system.l3.CleanEvict_mshr_misses::total           992                       # number of CleanEvict MSHR misses
system.l3.ReadExReq_mshr_misses::cpu.data         6782                       # number of ReadExReq MSHR misses
system.l3.ReadExReq_mshr_misses::total           6782                       # number of ReadExReq MSHR misses
system.l3.ReadSharedReq_mshr_misses::cpu.inst          738                       # number of ReadSharedReq MSHR misses
system.l3.ReadSharedReq_mshr_misses::cpu.data        14559                       # number of ReadSharedReq MSHR misses
system.l3.ReadSharedReq_mshr_misses::total        15297                       # number of ReadSharedReq MSHR misses
system.l3.demand_mshr_misses::cpu.inst            738                       # number of demand (read+write) MSHR misses
system.l3.demand_mshr_misses::cpu.data          21341                       # number of demand (read+write) MSHR misses
system.l3.demand_mshr_misses::total             22079                       # number of demand (read+write) MSHR misses
system.l3.overall_mshr_misses::cpu.inst           738                       # number of overall MSHR misses
system.l3.overall_mshr_misses::cpu.data         21341                       # number of overall MSHR misses
system.l3.overall_mshr_misses::total            22079                       # number of overall MSHR misses
system.l3.ReadExReq_mshr_miss_latency::cpu.data   1354664500                       # number of ReadExReq MSHR miss cycles
system.l3.ReadExReq_mshr_miss_latency::total   1354664500                       # number of ReadExReq MSHR miss cycles
system.l3.ReadSharedReq_mshr_miss_latency::cpu.inst    105835500                       # number of ReadSharedReq MSHR miss cycles
system.l3.ReadSharedReq_mshr_miss_latency::cpu.data   4958772500                       # number of ReadSharedReq MSHR miss cycles
system.l3.ReadSharedReq_mshr_miss_latency::total   5064608000                       # number of ReadSharedReq MSHR miss cycles
system.l3.demand_mshr_miss_latency::cpu.inst    105835500                       # number of demand (read+write) MSHR miss cycles
system.l3.demand_mshr_miss_latency::cpu.data   6313437000                       # number of demand (read+write) MSHR miss cycles
system.l3.demand_mshr_miss_latency::total   6419272500                       # number of demand (read+write) MSHR miss cycles
system.l3.overall_mshr_miss_latency::cpu.inst    105835500                       # number of overall MSHR miss cycles
system.l3.overall_mshr_miss_latency::cpu.data   6313437000                       # number of overall MSHR miss cycles
system.l3.overall_mshr_miss_latency::total   6419272500                       # number of overall MSHR miss cycles
system.l3.CleanEvict_mshr_miss_rate::writebacks          inf                       # mshr miss rate for CleanEvict accesses
system.l3.CleanEvict_mshr_miss_rate::total          inf                       # mshr miss rate for CleanEvict accesses
system.l3.ReadExReq_mshr_miss_rate::cpu.data     0.994866                       # mshr miss rate for ReadExReq accesses
system.l3.ReadExReq_mshr_miss_rate::total     0.994866                       # mshr miss rate for ReadExReq accesses
system.l3.ReadSharedReq_mshr_miss_rate::cpu.inst            1                       # mshr miss rate for ReadSharedReq accesses
system.l3.ReadSharedReq_mshr_miss_rate::cpu.data     0.791508                       # mshr miss rate for ReadSharedReq accesses
system.l3.ReadSharedReq_mshr_miss_rate::total     0.799550                       # mshr miss rate for ReadSharedReq accesses
system.l3.demand_mshr_miss_rate::cpu.inst            1                       # mshr miss rate for demand accesses
system.l3.demand_mshr_miss_rate::cpu.data     0.846496                       # mshr miss rate for demand accesses
system.l3.demand_mshr_miss_rate::total       0.850861                       # mshr miss rate for demand accesses
system.l3.overall_mshr_miss_rate::cpu.inst            1                       # mshr miss rate for overall accesses
system.l3.overall_mshr_miss_rate::cpu.data     0.846496                       # mshr miss rate for overall accesses
system.l3.overall_mshr_miss_rate::total      0.850861                       # mshr miss rate for overall accesses
system.l3.ReadExReq_avg_mshr_miss_latency::cpu.data 199744.102035                       # average ReadExReq mshr miss latency
system.l3.ReadExReq_avg_mshr_miss_latency::total 199744.102035                       # average ReadExReq mshr miss latency
system.l3.ReadSharedReq_avg_mshr_miss_latency::cpu.inst 143408.536585                       # average ReadSharedReq mshr miss latency
system.l3.ReadSharedReq_avg_mshr_miss_latency::cpu.data 340598.427090                       # average ReadSharedReq mshr miss latency
system.l3.ReadSharedReq_avg_mshr_miss_latency::total 331085.049356                       # average ReadSharedReq mshr miss latency
system.l3.demand_avg_mshr_miss_latency::cpu.inst 143408.536585                       # average overall mshr miss latency
system.l3.demand_avg_mshr_miss_latency::cpu.data 295836.043297                       # average overall mshr miss latency
system.l3.demand_avg_mshr_miss_latency::total 290741.088817                       # average overall mshr miss latency
system.l3.overall_avg_mshr_miss_latency::cpu.inst 143408.536585                       # average overall mshr miss latency
system.l3.overall_avg_mshr_miss_latency::cpu.data 295836.043297                       # average overall mshr miss latency
system.l3.overall_avg_mshr_miss_latency::total 290741.088817                       # average overall mshr miss latency
system.l3.replacements                          39757                       # number of replacements
system.membus.snoop_filter.tot_requests         42322                       # Total number of requests made to the snoop filter.
system.membus.snoop_filter.hit_single_requests        20243                       # Number of requests hitting in the snoop filter with a single holder of the requested data.
system.membus.snoop_filter.hit_multi_requests            0                       # Number of requests hitting in the snoop filter with multiple (>1) holders of the requested data.
system.membus.snoop_filter.tot_snoops               0                       # Total number of snoops made to the snoop filter.
system.membus.snoop_filter.hit_single_snoops            0                       # Number of snoops hitting in the snoop filter with a single holder of the requested data.
system.membus.snoop_filter.hit_multi_snoops            0                       # Number of snoops hitting in the snoop filter with multiple (>1) holders of the requested data.
system.membus.pwrStateResidencyTicks::UNDEFINED  93971891000                       # Cumulative time (in ticks) in various power states
system.membus.trans_dist::ReadResp              15297                       # Transaction distribution
system.membus.trans_dist::WritebackDirty        16863                       # Transaction distribution
system.membus.trans_dist::CleanEvict             1254                       # Transaction distribution
system.membus.trans_dist::ReadExReq              6782                       # Transaction distribution
system.membus.trans_dist::ReadExResp             6782                       # Transaction distribution
system.membus.trans_dist::ReadSharedReq         15297                       # Transaction distribution
system.membus.pkt_count_system.l3.mem_side::system.mem_ctrls.port        62275                       # Packet count per connected master and slave (bytes)
system.membus.pkt_count_system.l3.mem_side::total        62275                       # Packet count per connected master and slave (bytes)
system.membus.pkt_count::total                  62275                       # Packet count per connected master and slave (bytes)
system.membus.pkt_size_system.l3.mem_side::system.mem_ctrls.port      2492288                       # Cumulative packet size per connected master and slave (bytes)
system.membus.pkt_size_system.l3.mem_side::total      2492288                       # Cumulative packet size per connected master and slave (bytes)
system.membus.pkt_size::total                 2492288                       # Cumulative packet size per connected master and slave (bytes)
system.membus.snoops                                0                       # Total snoops (count)
system.membus.snoopTraffic                          0                       # Total snoop traffic (bytes)
system.membus.snoop_fanout::samples             22079                       # Request fanout histogram
system.membus.snoop_fanout::mean                    0                       # Request fanout histogram
system.membus.snoop_fanout::stdev                   0                       # Request fanout histogram
system.membus.snoop_fanout::underflows              0      0.00%      0.00% # Request fanout histogram
system.membus.snoop_fanout::0                   22079    100.00%    100.00% # Request fanout histogram
system.membus.snoop_fanout::1                       0      0.00%    100.00% # Request fanout histogram
system.membus.snoop_fanout::overflows               0      0.00%    100.00% # Request fanout histogram
system.membus.snoop_fanout::min_value               0                       # Request fanout histogram
system.membus.snoop_fanout::max_value               0                       # Request fanout histogram
system.membus.snoop_fanout::total               22079                       # Request fanout histogram
system.membus.reqLayer2.occupancy           109788500                       # Layer occupancy (ticks)
system.membus.reqLayer2.utilization               0.1                       # Layer utilization (%)
system.membus.respLayer1.occupancy          110409000                       # Layer occupancy (ticks)
system.membus.respLayer1.utilization              0.1                       # Layer utilization (%)
system.tol2bus.snoop_filter.tot_requests        97837                       # Total number of requests made to the snoop filter.
system.tol2bus.snoop_filter.hit_single_requests        50041                       # Number of requests hitting in the snoop filter with a single holder of the requested data.
system.tol2bus.snoop_filter.hit_multi_requests            1                       # Number of requests hitting in the snoop filter with multiple (>1) holders of the requested data.
system.tol2bus.snoop_filter.tot_snoops          16125                       # Total number of snoops made to the snoop filter.
system.tol2bus.snoop_filter.hit_single_snoops        16125                       # Number of snoops hitting in the snoop filter with a single holder of the requested data.
system.tol2bus.snoop_filter.hit_multi_snoops            0                       # Number of snoops hitting in the snoop filter with multiple (>1) holders of the requested data.
system.tol2bus.pwrStateResidencyTicks::UNDEFINED  93971891000                       # Cumulative time (in ticks) in various power states
system.tol2bus.trans_dist::ReadResp             40695                       # Transaction distribution
system.tol2bus.trans_dist::WritebackDirty        82796                       # Transaction distribution
system.tol2bus.trans_dist::WritebackClean          290                       # Transaction distribution
system.tol2bus.trans_dist::CleanEvict           27545                       # Transaction distribution
system.tol2bus.trans_dist::UpgradeReq            3224                       # Transaction distribution
system.tol2bus.trans_dist::UpgradeResp           3224                       # Transaction distribution
system.tol2bus.trans_dist::ReadExReq             7101                       # Transaction distribution
system.tol2bus.trans_dist::ReadExResp            7101                       # Transaction distribution
system.tol2bus.trans_dist::ReadCleanReq           757                       # Transaction distribution
system.tol2bus.trans_dist::ReadSharedReq        39938                       # Transaction distribution
system.tol2bus.pkt_count_system.cpu.icache.mem_side::system.l2.cpu_side         1804                       # Packet count per connected master and slave (bytes)
system.tol2bus.pkt_count_system.cpu.dcache.mem_side::system.l2.cpu_side       147053                       # Packet count per connected master and slave (bytes)
system.tol2bus.pkt_count::total                148857                       # Packet count per connected master and slave (bytes)
system.tol2bus.pkt_size_system.cpu.icache.mem_side::system.l2.cpu_side        67008                       # Cumulative packet size per connected master and slave (bytes)
system.tol2bus.pkt_size_system.cpu.dcache.mem_side::system.l2.cpu_side      5824768                       # Cumulative packet size per connected master and slave (bytes)
system.tol2bus.pkt_size::total                5891776                       # Cumulative packet size per connected master and slave (bytes)
system.tol2bus.snoops                           63814                       # Total snoops (count)
system.tol2bus.snoopTraffic                   2484672                       # Total snoop traffic (bytes)
system.tol2bus.snoop_fanout::samples           114834                       # Request fanout histogram
system.tol2bus.snoop_fanout::mean            0.140429                       # Request fanout histogram
system.tol2bus.snoop_fanout::stdev           0.347433                       # Request fanout histogram
system.tol2bus.snoop_fanout::underflows             0      0.00%      0.00% # Request fanout histogram
system.tol2bus.snoop_fanout::0                  98708     85.96%     85.96% # Request fanout histogram
system.tol2bus.snoop_fanout::1                  16126     14.04%    100.00% # Request fanout histogram
system.tol2bus.snoop_fanout::2                      0      0.00%    100.00% # Request fanout histogram
system.tol2bus.snoop_fanout::3                      0      0.00%    100.00% # Request fanout histogram
system.tol2bus.snoop_fanout::4                      0      0.00%    100.00% # Request fanout histogram
system.tol2bus.snoop_fanout::overflows              0      0.00%    100.00% # Request fanout histogram
system.tol2bus.snoop_fanout::min_value              0                       # Request fanout histogram
system.tol2bus.snoop_fanout::max_value              1                       # Request fanout histogram
system.tol2bus.snoop_fanout::total             114834                       # Request fanout histogram
system.tol2bus.reqLayer0.occupancy           93181500                       # Layer occupancy (ticks)
system.tol2bus.reqLayer0.utilization              0.1                       # Layer utilization (%)
system.tol2bus.respLayer0.occupancy           1135500                       # Layer occupancy (ticks)
system.tol2bus.respLayer0.utilization             0.0                       # Layer utilization (%)
system.tol2bus.respLayer1.occupancy          72170500                       # Layer occupancy (ticks)
system.tol2bus.respLayer1.utilization             0.1                       # Layer utilization (%)
system.tol3bus.pwrStateResidencyTicks::UNDEFINED  93971891000                       # Cumulative time (in ticks) in various power states
system.tol3bus.trans_dist::ReadResp             19132                       # Transaction distribution
system.tol3bus.trans_dist::WritebackDirty        38823                       # Transaction distribution
system.tol3bus.trans_dist::CleanEvict           24429                       # Transaction distribution
system.tol3bus.trans_dist::ReadExReq             6817                       # Transaction distribution
system.tol3bus.trans_dist::ReadExResp            6817                       # Transaction distribution
system.tol3bus.trans_dist::ReadSharedReq        19132                       # Transaction distribution
system.tol3bus.pkt_count_system.l2.mem_side::system.l3.cpu_side        75393                       # Packet count per connected master and slave (bytes)
system.tol3bus.pkt_size_system.l2.mem_side::system.l3.cpu_side      3066176                       # Cumulative packet size per connected master and slave (bytes)
system.tol3bus.snoops                           39757                       # Total snoops (count)
system.tol3bus.snoopTraffic                   1079232                       # Total snoop traffic (bytes)
system.tol3bus.snoop_fanout::samples            89201                       # Request fanout histogram
system.tol3bus.snoop_fanout::mean            0.445701                       # Request fanout histogram
system.tol3bus.snoop_fanout::stdev           0.497046                       # Request fanout histogram
system.tol3bus.snoop_fanout::underflows             0      0.00%      0.00% # Request fanout histogram
system.tol3bus.snoop_fanout::0                  49444     55.43%     55.43% # Request fanout histogram
system.tol3bus.snoop_fanout::1                  39757     44.57%    100.00% # Request fanout histogram
system.tol3bus.snoop_fanout::overflows              0      0.00%    100.00% # Request fanout histogram
system.tol3bus.snoop_fanout::min_value              0                       # Request fanout histogram
system.tol3bus.snoop_fanout::max_value              1                       # Request fanout histogram
system.tol3bus.snoop_fanout::total              89201                       # Request fanout histogram
system.tol3bus.reqLayer0.occupancy           46682000                       # Layer occupancy (ticks)
system.tol3bus.reqLayer0.utilization              0.0                       # Layer utilization (%)
system.tol3bus.respLayer0.occupancy          38923500                       # Layer occupancy (ticks)
system.tol3bus.respLayer0.utilization             0.0                       # Layer utilization (%)

---------- End Simulation Statistics   ----------
